SCHEMBL21135147
  Mrv1719007161922232D 0   0.00000     0.00000     0

 39 42  0  0  0  0              1 V2000 
    2.9282   -3.9378    0.0000 C   0  0  0  0  0  0  0  0  0  0  0  0
    2.9375   -4.7689    0.0000 C   0  0  0  0  0  0  0  0  0  0  0  0
    2.2036   -3.5192    0.0000 O   0  0  0  0  0  0  0  0  0  0  0  0
    3.6343   -2.6805    0.0000 N   0  0  0  0  0  0  0  0  0  0  0  0
    3.6383   -3.5310    0.0000 C   0  0  0  0  0  0  0  0  0  0  0  0
    4.3618   -3.9353    0.0000 C   0  0  0  0  0  0  0  0  0  0  0  0
    5.0486   -3.5192    0.0000 O   0  0  0  0  0  0  0  0  0  0  0  0
    4.3642   -4.7573    0.0000 C   0  0  0  0  0  0  0  0  0  0  0  0
    3.6420   -5.1729    0.0000 C   0  0  0  0  0  0  0  0  0  0  0  0
    7.9172   -3.5306    0.0000 C   0  0  0  0  0  0  0  0  0  0  0  0
    8.6233   -3.9342    0.0000 C   0  0  0  0  0  0  0  0  0  0  0  0
    7.2043   -2.2953    0.0000 C   0  0  0  0  0  0  0  0  0  0  0  0
    7.9158   -2.7024    0.0000 C   0  0  0  0  0  0  0  0  0  0  0  0
    5.7775   -2.2976    0.0000 C   0  0  0  0  0  0  0  0  0  0  0  0
    6.4855   -2.7003    0.0000 C   0  0  0  0  0  0  0  0  0  0  0  0
    5.7771   -1.4691    0.0000 C   0  0  0  0  0  0  0  0  0  0  0  0
    5.0486   -1.0525    0.0000 S   0  0  0  0  0  0  0  0  0  0  0  0
    6.4913   -1.0571    0.0000 C   0  0  0  0  0  0  0  0  0  0  0  0
    7.2132   -1.4792    0.0000 C   0  0  0  0  0  0  0  0  0  0  0  0
    8.6276   -2.3455    0.0000 C   0  0  0  0  0  0  0  0  0  0  0  0
    9.3485   -3.5279    0.0000 C   0  0  0  0  0  0  0  0  0  0  0  0
    9.3407   -2.6805    0.0000 N   0  0  0  0  0  0  0  0  0  0  0  0
   10.0533   -3.9349    0.0000 C   0  0  0  0  0  0  0  0  0  0  0  0
   10.7550   -4.3250    0.0000 N   0  0  0  0  0  0  0  0  0  0  0  0
    0.0726   -2.2794    0.0000 C   0  0  0  0  0  0  0  0  0  0  0  0
    0.7877   -2.7055    0.0000 C   0  0  0  0  0  0  0  0  0  0  0  0
    1.5067   -2.2916    0.0000 C   0  0  0  0  0  0  0  0  0  0  0  0
    2.9272   -1.4471    0.0000 N   0  0  0  0  0  0  0  0  0  0  0  0
    2.9288   -2.2965    0.0000 C   0  0  0  0  0  0  0  0  0  0  0  0
    2.2179   -2.7077    0.0000 C   0  0  0  0  0  0  0  0  0  0  0  0
    4.3655   -2.2940    0.0000 C   0  0  0  0  0  0  0  0  0  0  0  0
    3.6334   -1.0661    0.0000 C   0  0  0  0  0  0  0  0  0  0  0  0
    4.3605   -1.4666    0.0000 C   0  0  0  0  0  0  0  0  0  0  0  0
    5.2131   -2.6970    0.0000 O   0  0  0  0  0  0  0  0  0  0  0  0
    4.6375   -0.3289    0.0000 O   0  0  0  0  0  0  0  0  0  0  0  0
    1.5170   -3.9300    0.0000 C   0  0  0  0  0  0  0  0  0  0  0  0
    5.7770   -3.9303    0.0000 C   0  0  0  0  0  0  0  0  0  0  0  0
    5.4597   -0.3289    0.0000 O   0  0  0  0  0  0  0  0  0  0  0  0
    3.6179   -0.2302    0.0000 O   0  0  0  0  0  0  0  0  0  0  0  0
  1  2  2  0  0  0  0
  1  5  1  0  0  0  0
  2  9  1  0  0  0  0
  3  1  1  0  0  0  0
  4  5  1  0  0  0  0
  5  6  2  0  0  0  0
  6  7  1  0  0  0  0
  6  8  1  0  0  0  0
  7 37  1  0  0  0  0
  9  8  2  0  0  0  0
 10 11  1  0  0  0  0
 11 21  2  0  0  0  0
 12 13  1  0  0  0  0
 12 19  1  0  0  0  0
 13 20  1  0  0  0  0
 13 10  2  0  0  0  0
 14 15  1  0  0  0  0
 15 12  2  0  0  0  0
 16 14  2  0  0  0  0
 16 17  1  0  0  0  0
 16 18  1  0  0  0  0
 17 38  2  0  0  0  0
 18 19  2  0  0  0  0
 20 22  2  0  0  0  0
 21 23  1  0  0  0  0
 22 21  1  0  0  0  0
 23 24  3  0  0  0  0
 25 26  1  0  0  0  0
 26 27  1  0  0  0  0
 28 29  2  0  0  0  0
 29  4  1  0  0  0  0
 29 30  1  0  0  0  0
 30 27  1  0  0  0  0
 31  4  1  0  0  0  0
 31 34  1  0  0  0  0
 32 33  1  0  0  0  0
 32 28  1  0  0  0  0
 33 17  1  0  0  0  0
 33 31  2  0  0  0  0
 35 17  2  0  0  0  0
 36  3  1  0  0  0  0
 39 32  2  0  0  0  0
M  END
> <ID>
SCHEMBL21135147

> <InChIKey>
KZHCYJFOBFMANU-UHFFFAOYSA-N

> <MW>
546.6

> <Series_Name>
Series_13

$$$$
SCHEMBL21135158
  Mrv1719007161922262D 0   0.00000     0.00000     0

 28 30  0  0  0  0              1 V2000 
    3.5969   -0.1356    0.0000 O   0  0  0  0  0  0  0  0  0  0  0  0
    0.0000   -2.2267    0.0000 C   0  0  0  0  0  0  0  0  0  0  0  0
    5.1955   -2.6335    0.0000 O   0  0  0  0  0  0  0  0  0  0  0  0
    7.2224   -3.8680    0.0000 C   0  0  0  0  0  0  0  0  0  0  0  0
    3.6445   -0.9849    0.0000 C   0  0  0  0  0  0  0  0  0  0  0  0
    7.2080   -2.2171    0.0000 C   0  0  0  0  0  0  0  0  0  0  0  0
    7.2080   -1.3989    0.0000 C   0  0  0  0  0  0  0  0  0  0  0  0
    6.5372   -0.9991    0.0000 C   0  0  0  0  0  0  0  0  0  0  0  0
    5.7664   -1.3940    0.0000 C   0  0  0  0  0  0  0  0  0  0  0  0
    4.3153   -1.3797    0.0000 C   0  0  0  0  0  0  0  0  0  0  0  0
    4.3248   -2.2029    0.0000 C   0  0  0  0  0  0  0  0  0  0  0  0
    5.7664   -2.2124    0.0000 C   0  0  0  0  0  0  0  0  0  0  0  0
    6.4516   -2.6262    0.0000 C   0  0  0  0  0  0  0  0  0  0  0  0
    2.8737   -2.2029    0.0000 C   0  0  0  0  0  0  0  0  0  0  0  0
    2.1553   -2.6406    0.0000 C   0  0  0  0  0  0  0  0  0  0  0  0
    1.4131   -2.2267    0.0000 C   0  0  0  0  0  0  0  0  0  0  0  0
    0.7137   -2.6406    0.0000 C   0  0  0  0  0  0  0  0  0  0  0  0
    7.9265   -2.6359    0.0000 C   0  0  0  0  0  0  0  0  0  0  0  0
    9.3776   -3.4541    0.0000 C   0  0  0  0  0  0  0  0  0  0  0  0
    9.3776   -2.6549    0.0000 C   0  0  0  0  0  0  0  0  0  0  0  0
    8.6639   -2.2267    0.0000 C   0  0  0  0  0  0  0  0  0  0  0  0
    7.9265   -3.4590    0.0000 C   0  0  0  0  0  0  0  0  0  0  0  0
    5.4524   -0.2497    0.0000 O   0  0  0  0  0  0  0  0  0  0  0  0
    4.6104   -0.2497    0.0000 O   0  0  0  0  0  0  0  0  0  0  0  0
    3.6041   -2.6335    0.0000 N   0  0  0  0  0  0  0  0  0  0  0  0
    2.8904   -1.3916    0.0000 N   0  0  0  0  0  0  0  0  0  0  0  0
    8.6568   -3.8895    0.0000 N   0  0  0  0  0  0  0  0  0  0  0  0
    5.0385   -0.9777    0.0000 S   0  0  0  0  0  0  0  0  0  0  0  0
  1  5  2  0  0  0  0
  6  7  1  0  0  0  0
  7  8  2  0  0  0  0
  8  9  1  0  0  0  0
  5 10  1  0  0  0  0
 10 11  2  0  0  0  0
  3 11  1  0  0  0  0
  9 12  2  0  0  0  0
 12 13  1  0  0  0  0
  6 13  2  0  0  0  0
 14 15  1  0  0  0  0
 15 16  1  0  0  0  0
 16 17  1  0  0  0  0
  2 17  1  0  0  0  0
  6 18  1  0  0  0  0
 19 20  1  0  0  0  0
 20 21  2  0  0  0  0
 18 21  1  0  0  0  0
 18 22  2  0  0  0  0
  4 22  1  0  0  0  0
 11 25  1  0  0  0  0
 14 25  1  0  0  0  0
  5 26  1  0  0  0  0
 14 26  2  0  0  0  0
 19 27  2  0  0  0  0
 22 27  1  0  0  0  0
  9 28  1  0  0  0  0
 10 28  1  0  0  0  0
 23 28  2  0  0  0  0
 24 28  2  0  0  0  0
M  END
> <ID>
SCHEMBL21135158

> <InChIKey>
JFXCYNQFAJFUGR-UHFFFAOYSA-N

> <MW>
399.47

> <Series_Name>
Series_13

$$$$
SCHEMBL21135159
  Mrv1719007161922272D 0   0.00000     0.00000     0

 37 40  0  0  0  0              1 V2000 
    0.0142   -2.5967    0.0000 C   0  0  0  0  0  0  0  0  0  0  0  0
    4.4414   -2.6180    0.0000 O   0  0  0  0  0  0  0  0  0  0  0  0
    6.4564   -3.8455    0.0000 C   0  0  0  0  0  0  0  0  0  0  0  0
    0.7237   -3.8455    0.0000 C   0  0  0  0  0  0  0  0  0  0  0  0
    2.1356   -3.8455    0.0000 C   0  0  0  0  0  0  0  0  0  0  0  0
    2.8664   -3.4481    0.0000 C   0  0  1  0  0  0  0  0  0  0  0  0
    6.4564   -2.1900    0.0000 C   0  0  0  0  0  0  0  0  0  0  0  0
    6.4564   -1.3906    0.0000 C   0  0  0  0  0  0  0  0  0  0  0  0
    5.7185   -0.9649    0.0000 C   0  0  0  0  0  0  0  0  0  0  0  0
    5.0138   -1.3717    0.0000 C   0  0  0  0  0  0  0  0  0  0  0  0
    5.0941   -2.2562    0.0000 C   0  0  0  0  0  0  0  0  0  0  0  0
    5.7468   -2.6109    0.0000 C   0  0  0  0  0  0  0  0  0  0  0  0
    7.1658   -2.6204    0.0000 C   0  0  0  0  0  0  0  0  0  0  0  0
    3.5711   -1.3812    0.0000 C   0  0  0  0  0  0  0  0  0  0  0  0
    3.5758   -2.1900    0.0000 C   0  0  0  0  0  0  0  0  0  0  0  0
    2.1427   -2.1900    0.0000 C   0  0  0  0  0  0  0  0  0  0  0  0
    1.4331   -2.6109    0.0000 C   0  0  0  0  0  0  0  0  0  0  0  0
    0.7095   -2.1994    0.0000 C   0  0  0  0  0  0  0  0  0  0  0  0
    8.5991   -3.4339    0.0000 C   0  0  0  0  0  0  0  0  0  0  0  0
    8.5991   -2.6251    0.0000 C   0  0  0  0  0  0  0  0  0  0  0  0
    7.8754   -2.1994    0.0000 C   0  0  0  0  0  0  0  0  0  0  0  0
    7.1658   -3.4387    0.0000 C   0  0  0  0  0  0  0  0  0  0  0  0
    3.5711   -3.8643    0.0000 C   0  0  0  0  0  0  0  0  0  0  0  0
    4.3137   -3.4481    0.0000 C   0  0  0  0  0  0  0  0  0  0  0  0
    3.5758   -4.6684    0.0000 C   0  0  0  0  0  0  0  0  0  0  0  0
    4.2853   -5.0941    0.0000 C   0  0  0  0  0  0  0  0  0  0  0  0
    5.0232   -4.6684    0.0000 C   0  0  0  0  0  0  0  0  0  0  0  0
    5.0232   -3.8738    0.0000 C   0  0  0  0  0  0  0  0  0  0  0  0
    2.8545   -0.9649    0.0000 C   0  0  0  0  0  0  0  0  0  0  0  0
    2.8521   -0.1348    0.0000 O   0  0  0  0  0  0  0  0  0  0  0  0
    3.8738   -0.2483    0.0000 O   0  0  0  0  0  0  0  0  0  0  0  0
    4.6968   -0.2483    0.0000 O   0  0  0  0  0  0  0  0  0  0  0  0
    2.8735   -2.6180    0.0000 N   0  0  0  0  0  0  0  0  0  0  0  0
    1.4190   -3.4410    0.0000 O   0  0  0  0  0  0  0  0  0  0  0  0
    2.1498   -1.3693    0.0000 N   0  0  0  0  0  0  0  0  0  0  0  0
    7.8824   -3.8526    0.0000 N   0  0  0  0  0  0  0  0  0  0  0  0
    4.2995   -0.9578    0.0000 S   0  0  0  0  0  0  0  0  0  0  0  0
  7  8  1  0  0  0  0
  8  9  2  0  0  0  0
  9 10  1  0  0  0  0
 10 11  2  0  0  0  0
 11 12  1  0  0  0  0
  7 12  2  0  0  0  0
  7 13  1  0  0  0  0
 14 15  2  0  0  0  0
  2 15  1  0  0  0  0
 16 17  1  0  0  0  0
 17 18  1  0  0  0  0
  1 18  1  0  0  0  0
 19 20  1  0  0  0  0
 20 21  2  0  0  0  0
 13 21  1  0  0  0  0
 13 22  2  0  0  0  0
  3 22  1  0  0  0  0
  6 23  1  0  0  0  0
 23 24  1  0  0  0  0
 23 25  2  0  0  0  0
 25 26  1  0  0  0  0
 26 27  2  0  0  0  0
 27 28  1  0  0  0  0
 24 28  2  0  0  0  0
 14 29  1  0  0  0  0
 29 30  2  0  0  0  0
  6 33  1  0  0  0  0
 15 33  1  0  0  0  0
 16 33  1  0  0  0  0
  4 34  1  0  0  0  0
  5 34  1  0  0  0  0
 16 35  2  0  0  0  0
 29 35  1  0  0  0  0
 19 36  2  0  0  0  0
 22 36  1  0  0  0  0
 10 37  1  0  0  0  0
 14 37  1  0  0  0  0
 31 37  2  0  0  0  0
 32 37  2  0  0  0  0
  6  5  1  6  0  0  0
M  END
> <ID>
SCHEMBL21135159

> <InChIKey>
NVPLJHWRDSWJOU-DEOSSOPVSA-N

> <MW>
519.62

> <Series_Name>
Series_13

$$$$
SCHEMBL21135163
  Mrv1719007161922292D 0   0.00000     0.00000     0

 35 38  0  0  0  0              1 V2000 
    3.5661   -0.1576    0.0000 O   0  0  0  0  0  0  0  0  0  0  0  0
    0.0166   -2.2392    0.0000 C   0  0  0  0  0  0  0  0  0  0  0  0
    5.1916   -2.6456    0.0000 O   0  0  0  0  0  0  0  0  0  0  0  0
   10.0183   -2.2392    0.0000 C   0  0  0  0  0  0  0  0  0  0  0  0
    3.6214   -0.9952    0.0000 C   0  0  0  0  0  0  0  0  0  0  0  0
    7.1709   -2.2116    0.0000 C   0  0  0  0  0  0  0  0  0  0  0  0
    7.1820   -1.4098    0.0000 C   0  0  0  0  0  0  0  0  0  0  0  0
    6.5185   -1.0118    0.0000 C   0  0  0  0  0  0  0  0  0  0  0  0
    5.7390   -1.4044    0.0000 C   0  0  0  0  0  0  0  0  0  0  0  0
    4.3014   -1.3933    0.0000 C   0  0  0  0  0  0  0  0  0  0  0  0
    4.3125   -2.2116    0.0000 C   0  0  0  0  0  0  0  0  0  0  0  0
    5.7390   -2.2226    0.0000 C   0  0  0  0  0  0  0  0  0  0  0  0
    6.4356   -2.6372    0.0000 C   0  0  0  0  0  0  0  0  0  0  0  0
    7.8952   -2.6483    0.0000 C   0  0  0  0  0  0  0  0  0  0  0  0
    2.8584   -2.2116    0.0000 C   0  0  0  0  0  0  0  0  0  0  0  0
    2.1397   -2.6372    0.0000 C   0  0  0  0  0  0  0  0  0  0  0  0
    1.4264   -2.2226    0.0000 C   0  0  0  0  0  0  0  0  0  0  0  0
    0.6966   -2.6372    0.0000 C   0  0  0  0  0  0  0  0  0  0  0  0
    9.3272   -2.6318    0.0000 C   0  0  0  0  0  0  0  0  0  0  0  0
    8.6084   -2.2226    0.0000 C   0  0  0  0  0  0  0  0  0  0  0  0
    9.3382   -3.4500    0.0000 C   0  0  0  0  0  0  0  0  0  0  0  0
    7.8952   -3.4666    0.0000 C   0  0  0  0  0  0  0  0  0  0  0  0
    3.5827   -3.4666    0.0000 C   0  0  0  0  0  0  0  0  0  0  0  0
    4.3014   -3.8812    0.0000 C   0  0  0  0  0  0  0  0  0  0  0  0
    4.9926   -3.4832    0.0000 C   0  0  0  0  0  0  0  0  0  0  0  0
    4.3125   -4.7106    0.0000 C   0  0  0  0  0  0  0  0  0  0  0  0
    5.0257   -5.1252    0.0000 C   0  0  0  0  0  0  0  0  0  0  0  0
    5.7390   -4.6940    0.0000 C   0  0  0  0  0  0  0  0  0  0  0  0
    5.7390   -3.8978    0.0000 C   0  0  0  0  0  0  0  0  0  0  0  0
    4.5945   -0.2571    0.0000 O   0  0  0  0  0  0  0  0  0  0  0  0
    5.4238   -0.2571    0.0000 O   0  0  0  0  0  0  0  0  0  0  0  0
    3.5910   -2.6456    0.0000 N   0  0  0  0  0  0  0  0  0  0  0  0
    2.8778   -1.4016    0.0000 N   0  0  0  0  0  0  0  0  0  0  0  0
    8.6167   -3.8895    0.0000 N   0  0  0  0  0  0  0  0  0  0  0  0
    5.0257   -0.9869    0.0000 S   0  0  0  0  0  0  0  0  0  0  0  0
  1  5  2  0  0  0  0
  6  7  1  0  0  0  0
  7  8  2  0  0  0  0
  8  9  1  0  0  0  0
  5 10  1  0  0  0  0
 10 11  2  0  0  0  0
  3 11  1  0  0  0  0
  9 12  2  0  0  0  0
 12 13  1  0  0  0  0
  6 13  2  0  0  0  0
  6 14  1  0  0  0  0
 15 16  1  0  0  0  0
 16 17  1  0  0  0  0
 17 18  1  0  0  0  0
  2 18  1  0  0  0  0
  4 19  1  0  0  0  0
 19 20  2  0  0  0  0
 14 20  1  0  0  0  0
 19 21  1  0  0  0  0
 14 22  2  0  0  0  0
 23 24  1  0  0  0  0
 24 25  1  0  0  0  0
 24 26  2  0  0  0  0
 26 27  1  0  0  0  0
 27 28  2  0  0  0  0
 28 29  1  0  0  0  0
 25 29  2  0  0  0  0
 11 32  1  0  0  0  0
 15 32  1  0  0  0  0
 23 32  1  0  0  0  0
  5 33  1  0  0  0  0
 15 33  2  0  0  0  0
 21 34  2  0  0  0  0
 22 34  1  0  0  0  0
  9 35  1  0  0  0  0
 10 35  1  0  0  0  0
 30 35  2  0  0  0  0
 31 35  2  0  0  0  0
M  END
> <ID>
SCHEMBL21135163

> <InChIKey>
JCVQZQAWKMJVLQ-UHFFFAOYSA-N

> <MW>
489.59

> <Series_Name>
Series_13

$$$$
SCHEMBL21135166
  Mrv1719007161922302D 0   0.00000     0.00000     0

 28 30  0  0  0  0              1 V2000 
    0.0000   -2.2423    0.0000 C   0  0  0  0  0  0  0  0  0  0  0  0
    5.1988   -2.6492    0.0000 O   0  0  0  0  0  0  0  0  0  0  0  0
   10.0572   -3.8950    0.0000 F   0  0  0  0  0  0  0  0  0  0  0  0
    7.1810   -2.2146    0.0000 C   0  0  0  0  0  0  0  0  0  0  0  0
    7.1920   -1.4118    0.0000 C   0  0  0  0  0  0  0  0  0  0  0  0
    6.5442   -1.0298    0.0000 C   0  0  0  0  0  0  0  0  0  0  0  0
    5.7470   -1.4063    0.0000 C   0  0  0  0  0  0  0  0  0  0  0  0
    4.3185   -1.4063    0.0000 C   0  0  0  0  0  0  0  0  0  0  0  0
    4.3075   -2.2312    0.0000 C   0  0  0  0  0  0  0  0  0  0  0  0
    5.7470   -2.2257    0.0000 C   0  0  0  0  0  0  0  0  0  0  0  0
    6.4612   -2.6575    0.0000 C   0  0  0  0  0  0  0  0  0  0  0  0
    7.9062   -2.6520    0.0000 C   0  0  0  0  0  0  0  0  0  0  0  0
    2.8735   -2.2312    0.0000 C   0  0  0  0  0  0  0  0  0  0  0  0
    0.6810   -2.6410    0.0000 C   0  0  0  0  0  0  0  0  0  0  0  0
    2.1759   -2.6410    0.0000 C   0  0  0  0  0  0  0  0  0  0  0  0
    9.3402   -3.4769    0.0000 C   0  0  0  0  0  0  0  0  0  0  0  0
    9.3512   -2.6575    0.0000 C   0  0  0  0  0  0  0  0  0  0  0  0
    8.7036   -2.2756    0.0000 C   0  0  0  0  0  0  0  0  0  0  0  0
    7.9062   -3.4714    0.0000 C   0  0  0  0  0  0  0  0  0  0  0  0
    3.5780   -0.9966    0.0000 C   0  0  0  0  0  0  0  0  0  0  0  0
    3.5711   -0.1578    0.0000 O   0  0  0  0  0  0  0  0  0  0  0  0
    5.4313   -0.2740    0.0000 O   0  0  0  0  0  0  0  0  0  0  0  0
    4.6009   -0.2740    0.0000 O   0  0  0  0  0  0  0  0  0  0  0  0
    8.6287   -3.8950    0.0000 N   0  0  0  0  0  0  0  0  0  0  0  0
    3.5960   -2.6492    0.0000 N   0  0  0  0  0  0  0  0  0  0  0  0
    1.4285   -2.2339    0.0000 O   0  0  0  0  0  0  0  0  0  0  0  0
    2.8817   -1.4035    0.0000 N   0  0  0  0  0  0  0  0  0  0  0  0
    5.0328   -0.9883    0.0000 S   0  0  0  0  0  0  0  0  0  0  0  0
  4  5  1  0  0  0  0
  5  6  2  0  0  0  0
  6  7  1  0  0  0  0
  8  9  2  0  0  0  0
  2  9  1  0  0  0  0
  7 10  2  0  0  0  0
 10 11  1  0  0  0  0
  4 11  2  0  0  0  0
  4 12  1  0  0  0  0
  1 14  1  0  0  0  0
 13 15  1  0  0  0  0
  3 16  1  0  0  0  0
 16 17  1  0  0  0  0
 17 18  2  0  0  0  0
 12 18  1  0  0  0  0
 12 19  2  0  0  0  0
  8 20  1  0  0  0  0
 20 21  2  0  0  0  0
 16 24  2  0  0  0  0
 19 24  1  0  0  0  0
  9 25  1  0  0  0  0
 13 25  1  0  0  0  0
 14 26  1  0  0  0  0
 15 26  1  0  0  0  0
 13 27  2  0  0  0  0
 20 27  1  0  0  0  0
  7 28  1  0  0  0  0
  8 28  1  0  0  0  0
 22 28  2  0  0  0  0
 23 28  2  0  0  0  0
M  END
> <ID>
SCHEMBL21135166

> <InChIKey>
MCVJFNMBPYJQAP-UHFFFAOYSA-N

> <MW>
405.4

> <Series_Name>
Series_13

$$$$
SCHEMBL21135182
  Mrv1719007161922372D 0   0.00000     0.00000     0

 36 39  0  0  0  0              1 V2000 
    3.5660   -0.1576    0.0000 O   0  0  0  0  0  0  0  0  0  0  0  0
    0.0166   -2.2390    0.0000 C   0  0  0  0  0  0  0  0  0  0  0  0
    5.1913   -2.6454    0.0000 O   0  0  0  0  0  0  0  0  0  0  0  0
   10.0426   -3.8893    0.0000 F   0  0  0  0  0  0  0  0  0  0  0  0
    5.0835   -5.9542    0.0000 Cl  0  0  0  0  0  0  0  0  0  0  0  0
    3.6212   -0.9951    0.0000 C   0  0  0  0  0  0  0  0  0  0  0  0
    7.1705   -2.2115    0.0000 C   0  0  0  0  0  0  0  0  0  0  0  0
    7.1815   -1.4098    0.0000 C   0  0  0  0  0  0  0  0  0  0  0  0
    6.5182   -1.0117    0.0000 C   0  0  0  0  0  0  0  0  0  0  0  0
    5.7387   -1.4043    0.0000 C   0  0  0  0  0  0  0  0  0  0  0  0
    4.3011   -1.3932    0.0000 C   0  0  0  0  0  0  0  0  0  0  0  0
    4.3123   -2.2115    0.0000 C   0  0  0  0  0  0  0  0  0  0  0  0
    5.7387   -2.2225    0.0000 C   0  0  0  0  0  0  0  0  0  0  0  0
    6.4352   -2.6371    0.0000 C   0  0  0  0  0  0  0  0  0  0  0  0
    7.8948   -2.6482    0.0000 C   0  0  0  0  0  0  0  0  0  0  0  0
    2.8583   -2.2115    0.0000 C   0  0  0  0  0  0  0  0  0  0  0  0
    2.1396   -2.6371    0.0000 C   0  0  0  0  0  0  0  0  0  0  0  0
    1.4263   -2.2225    0.0000 C   0  0  0  0  0  0  0  0  0  0  0  0
    0.6966   -2.6371    0.0000 C   0  0  0  0  0  0  0  0  0  0  0  0
    9.3377   -3.4553    0.0000 C   0  0  0  0  0  0  0  0  0  0  0  0
    9.3377   -2.6536    0.0000 C   0  0  0  0  0  0  0  0  0  0  0  0
    8.6411   -2.2390    0.0000 C   0  0  0  0  0  0  0  0  0  0  0  0
    7.8948   -3.4664    0.0000 C   0  0  0  0  0  0  0  0  0  0  0  0
    3.5825   -3.4664    0.0000 C   0  0  0  0  0  0  0  0  0  0  0  0
    4.3011   -3.8811    0.0000 C   0  0  0  0  0  0  0  0  0  0  0  0
    5.0144   -5.1194    0.0000 C   0  0  0  0  0  0  0  0  0  0  0  0
    5.7387   -4.6937    0.0000 C   0  0  0  0  0  0  0  0  0  0  0  0
    5.7387   -3.8977    0.0000 C   0  0  0  0  0  0  0  0  0  0  0  0
    5.0421   -3.4830    0.0000 C   0  0  0  0  0  0  0  0  0  0  0  0
    4.3123   -4.7103    0.0000 C   0  0  0  0  0  0  0  0  0  0  0  0
    4.5941   -0.2737    0.0000 O   0  0  0  0  0  0  0  0  0  0  0  0
    5.4234   -0.2737    0.0000 O   0  0  0  0  0  0  0  0  0  0  0  0
    8.6162   -3.8893    0.0000 N   0  0  0  0  0  0  0  0  0  0  0  0
    3.5908   -2.6454    0.0000 N   0  0  0  0  0  0  0  0  0  0  0  0
    2.8776   -1.4015    0.0000 N   0  0  0  0  0  0  0  0  0  0  0  0
    5.0254   -0.9868    0.0000 S   0  0  0  0  0  0  0  0  0  0  0  0
  1  6  2  0  0  0  0
  7  8  1  0  0  0  0
  8  9  2  0  0  0  0
  9 10  1  0  0  0  0
  6 11  1  0  0  0  0
 11 12  2  0  0  0  0
  3 12  1  0  0  0  0
 10 13  2  0  0  0  0
 13 14  1  0  0  0  0
  7 14  2  0  0  0  0
  7 15  1  0  0  0  0
 16 17  1  0  0  0  0
 17 18  1  0  0  0  0
 18 19  1  0  0  0  0
  2 19  1  0  0  0  0
  4 20  1  0  0  0  0
 20 21  1  0  0  0  0
 21 22  2  0  0  0  0
 15 22  1  0  0  0  0
 15 23  2  0  0  0  0
 24 25  1  0  0  0  0
  5 26  1  0  0  0  0
 26 27  2  0  0  0  0
 27 28  1  0  0  0  0
 28 29  2  0  0  0  0
 25 29  1  0  0  0  0
 25 30  2  0  0  0  0
 26 30  1  0  0  0  0
 20 33  2  0  0  0  0
 23 33  1  0  0  0  0
 12 34  1  0  0  0  0
 16 34  1  0  0  0  0
 24 34  1  0  0  0  0
  6 35  1  0  0  0  0
 16 35  2  0  0  0  0
 10 36  1  0  0  0  0
 11 36  1  0  0  0  0
 31 36  2  0  0  0  0
 32 36  2  0  0  0  0
M  END
> <ID>
SCHEMBL21135182

> <InChIKey>
TVVTUROCWPLGAO-UHFFFAOYSA-N

> <MW>
528.0

> <Series_Name>
Series_13

$$$$
SCHEMBL21135192
  Mrv1719007161922392D 0   0.00000     0.00000     0

 36 39  0  0  0  0              1 V2000 
    3.5657   -0.1576    0.0000 O   0  0  0  0  0  0  0  0  0  0  0  0
    5.1910   -2.6453    0.0000 O   0  0  0  0  0  0  0  0  0  0  0  0
    0.0166   -2.2390    0.0000 C   0  0  0  0  0  0  0  0  0  0  0  0
   10.0421   -2.2307    0.0000 F   0  0  0  0  0  0  0  0  0  0  0  0
    0.7131   -3.4330    0.0000 C   0  0  0  0  0  0  0  0  0  0  0  0
    3.6210   -0.9951    0.0000 C   0  0  0  0  0  0  0  0  0  0  0  0
    7.1701   -2.2114    0.0000 C   0  0  0  0  0  0  0  0  0  0  0  0
    7.1812   -1.4097    0.0000 C   0  0  0  0  0  0  0  0  0  0  0  0
    6.5179   -1.0117    0.0000 C   0  0  0  0  0  0  0  0  0  0  0  0
    5.7384   -1.4041    0.0000 C   0  0  0  0  0  0  0  0  0  0  0  0
    4.3010   -1.3931    0.0000 C   0  0  0  0  0  0  0  0  0  0  0  0
    4.3120   -2.2114    0.0000 C   0  0  0  0  0  0  0  0  0  0  0  0
    5.7384   -2.2224    0.0000 C   0  0  0  0  0  0  0  0  0  0  0  0
    6.4349   -2.6369    0.0000 C   0  0  0  0  0  0  0  0  0  0  0  0
    7.8943   -2.6480    0.0000 C   0  0  0  0  0  0  0  0  0  0  0  0
    2.8581   -2.2114    0.0000 C   0  0  0  0  0  0  0  0  0  0  0  0
    2.1395   -2.6369    0.0000 C   0  0  0  0  0  0  0  0  0  0  0  0
    1.4262   -2.2224    0.0000 C   0  0  0  0  0  0  0  0  0  0  0  0
    0.7131   -2.6480    0.0000 C   0  0  0  0  0  0  0  0  0  0  0  0
    9.3262   -2.6314    0.0000 C   0  0  0  0  0  0  0  0  0  0  0  0
    8.6075   -2.2224    0.0000 C   0  0  0  0  0  0  0  0  0  0  0  0
    9.3373   -3.4496    0.0000 C   0  0  0  0  0  0  0  0  0  0  0  0
    7.8943   -3.4662    0.0000 C   0  0  0  0  0  0  0  0  0  0  0  0
    3.5823   -3.4662    0.0000 C   0  0  0  0  0  0  0  0  0  0  0  0
    4.3010   -3.8808    0.0000 C   0  0  0  0  0  0  0  0  0  0  0  0
    4.9921   -3.4828    0.0000 C   0  0  0  0  0  0  0  0  0  0  0  0
    4.3120   -4.7101    0.0000 C   0  0  0  0  0  0  0  0  0  0  0  0
    5.0253   -5.1247    0.0000 C   0  0  0  0  0  0  0  0  0  0  0  0
    5.7384   -4.6935    0.0000 C   0  0  0  0  0  0  0  0  0  0  0  0
    5.7384   -3.8974    0.0000 C   0  0  0  0  0  0  0  0  0  0  0  0
    4.5940   -0.2737    0.0000 O   0  0  0  0  0  0  0  0  0  0  0  0
    5.4232   -0.2737    0.0000 O   0  0  0  0  0  0  0  0  0  0  0  0
    3.5906   -2.6453    0.0000 N   0  0  0  0  0  0  0  0  0  0  0  0
    2.8775   -1.4014    0.0000 N   0  0  0  0  0  0  0  0  0  0  0  0
    8.6159   -3.8892    0.0000 N   0  0  0  0  0  0  0  0  0  0  0  0
    5.0253   -0.9868    0.0000 S   0  0  0  0  0  0  0  0  0  0  0  0
  1  6  2  0  0  0  0
  7  8  1  0  0  0  0
  8  9  2  0  0  0  0
  9 10  1  0  0  0  0
  6 11  1  0  0  0  0
 11 12  2  0  0  0  0
  2 12  1  0  0  0  0
 10 13  2  0  0  0  0
 13 14  1  0  0  0  0
  7 14  2  0  0  0  0
  7 15  1  0  0  0  0
 16 17  1  0  0  0  0
 17 18  1  0  0  0  0
 18 19  1  0  0  0  0
  3 19  1  0  0  0  0
  5 19  1  0  0  0  0
  4 20  1  0  0  0  0
 20 21  2  0  0  0  0
 15 21  1  0  0  0  0
 20 22  1  0  0  0  0
 15 23  2  0  0  0  0
 24 25  1  0  0  0  0
 25 26  1  0  0  0  0
 25 27  2  0  0  0  0
 27 28  1  0  0  0  0
 28 29  2  0  0  0  0
 29 30  1  0  0  0  0
 26 30  2  0  0  0  0
 12 33  1  0  0  0  0
 16 33  1  0  0  0  0
 24 33  1  0  0  0  0
  6 34  1  0  0  0  0
 16 34  2  0  0  0  0
 22 35  2  0  0  0  0
 23 35  1  0  0  0  0
 10 36  1  0  0  0  0
 11 36  1  0  0  0  0
 31 36  2  0  0  0  0
 32 36  2  0  0  0  0
M  END
> <ID>
SCHEMBL21135192

> <InChIKey>
OEDQKEGMXLRFPQ-UHFFFAOYSA-N

> <MW>
507.58

> <Series_Name>
Series_13

$$$$
SCHEMBL21135193
  Mrv1719007161922392D 0   0.00000     0.00000     0

 28 30  0  0  0  0              1 V2000 
    3.5661   -0.1576    0.0000 O   0  0  0  0  0  0  0  0  0  0  0  0
    0.0000   -2.2392    0.0000 C   0  0  0  0  0  0  0  0  0  0  0  0
    5.1916   -2.6455    0.0000 O   0  0  0  0  0  0  0  0  0  0  0  0
   10.0431   -2.2309    0.0000 F   0  0  0  0  0  0  0  0  0  0  0  0
    3.6214   -0.9952    0.0000 C   0  0  0  0  0  0  0  0  0  0  0  0
    7.1709   -2.2281    0.0000 C   0  0  0  0  0  0  0  0  0  0  0  0
    7.1819   -1.4098    0.0000 C   0  0  0  0  0  0  0  0  0  0  0  0
    6.5019   -1.0117    0.0000 C   0  0  0  0  0  0  0  0  0  0  0  0
    5.7389   -1.4043    0.0000 C   0  0  0  0  0  0  0  0  0  0  0  0
    4.3014   -1.4043    0.0000 C   0  0  0  0  0  0  0  0  0  0  0  0
    4.3014   -2.2281    0.0000 C   0  0  0  0  0  0  0  0  0  0  0  0
    5.7389   -2.2226    0.0000 C   0  0  0  0  0  0  0  0  0  0  0  0
    6.4521   -2.6538    0.0000 C   0  0  0  0  0  0  0  0  0  0  0  0
    7.8951   -2.6483    0.0000 C   0  0  0  0  0  0  0  0  0  0  0  0
    2.8694   -2.2281    0.0000 C   0  0  0  0  0  0  0  0  0  0  0  0
    2.1397   -2.6538    0.0000 C   0  0  0  0  0  0  0  0  0  0  0  0
    1.4430   -2.2392    0.0000 C   0  0  0  0  0  0  0  0  0  0  0  0
    0.7132   -2.6538    0.0000 C   0  0  0  0  0  0  0  0  0  0  0  0
    9.3271   -2.6483    0.0000 C   0  0  0  0  0  0  0  0  0  0  0  0
    8.6250   -2.2392    0.0000 C   0  0  0  0  0  0  0  0  0  0  0  0
    9.3382   -3.4500    0.0000 C   0  0  0  0  0  0  0  0  0  0  0  0
    7.8951   -3.4666    0.0000 C   0  0  0  0  0  0  0  0  0  0  0  0
    5.4238   -0.2737    0.0000 O   0  0  0  0  0  0  0  0  0  0  0  0
    4.5944   -0.2737    0.0000 O   0  0  0  0  0  0  0  0  0  0  0  0
    8.6167   -3.8896    0.0000 N   0  0  0  0  0  0  0  0  0  0  0  0
    3.5910   -2.6455    0.0000 N   0  0  0  0  0  0  0  0  0  0  0  0
    2.8777   -1.4015    0.0000 N   0  0  0  0  0  0  0  0  0  0  0  0
    5.0257   -0.9869    0.0000 S   0  0  0  0  0  0  0  0  0  0  0  0
  1  5  2  0  0  0  0
  6  7  1  0  0  0  0
  7  8  2  0  0  0  0
  8  9  1  0  0  0  0
  5 10  1  0  0  0  0
 10 11  2  0  0  0  0
  3 11  1  0  0  0  0
  9 12  2  0  0  0  0
 12 13  1  0  0  0  0
  6 13  2  0  0  0  0
  6 14  1  0  0  0  0
 15 16  1  0  0  0  0
 16 17  1  0  0  0  0
 17 18  1  0  0  0  0
  2 18  1  0  0  0  0
  4 19  1  0  0  0  0
 19 20  2  0  0  0  0
 14 20  1  0  0  0  0
 19 21  1  0  0  0  0
 14 22  2  0  0  0  0
 21 25  2  0  0  0  0
 22 25  1  0  0  0  0
 11 26  1  0  0  0  0
 15 26  1  0  0  0  0
  5 27  1  0  0  0  0
 15 27  2  0  0  0  0
  9 28  1  0  0  0  0
 10 28  1  0  0  0  0
 23 28  2  0  0  0  0
 24 28  2  0  0  0  0
M  END
> <ID>
SCHEMBL21135193

> <InChIKey>
JMBPANJKVVELFZ-UHFFFAOYSA-N

> <MW>
403.43

> <Series_Name>
Series_13

$$$$
SCHEMBL21135194
  Mrv1719007161922392D 0   0.00000     0.00000     0

 35 38  0  0  0  0              1 V2000 
    2.8500   -0.1565    0.0000 O   0  0  0  0  0  0  0  0  0  0  0  0
    0.0329   -2.6029    0.0000 C   0  0  0  0  0  0  0  0  0  0  0  0
    4.4645   -2.6276    0.0000 O   0  0  0  0  0  0  0  0  0  0  0  0
    6.4414   -3.8550    0.0000 C   0  0  0  0  0  0  0  0  0  0  0  0
    9.2832   -3.8633    0.0000 F   0  0  0  0  0  0  0  0  0  0  0  0
    2.9049   -0.9885    0.0000 C   0  0  0  0  0  0  0  0  0  0  0  0
    6.4414   -2.1966    0.0000 C   0  0  0  0  0  0  0  0  0  0  0  0
    6.4414   -1.4003    0.0000 C   0  0  0  0  0  0  0  0  0  0  0  0
    5.7166   -0.9719    0.0000 C   0  0  0  0  0  0  0  0  0  0  0  0
    4.9972   -1.3783    0.0000 C   0  0  0  0  0  0  0  0  0  0  0  0
    5.0411   -2.2405    0.0000 C   0  0  0  0  0  0  0  0  0  0  0  0
    5.7166   -2.6194    0.0000 C   0  0  0  0  0  0  0  0  0  0  0  0
    7.1388   -2.6139    0.0000 C   0  0  0  0  0  0  0  0  0  0  0  0
    3.5749   -1.3948    0.0000 C   0  0  0  0  0  0  0  0  0  0  0  0
    3.5749   -2.1966    0.0000 C   0  0  0  0  0  0  0  0  0  0  0  0
    2.1471   -2.1966    0.0000 C   0  0  0  0  0  0  0  0  0  0  0  0
    1.4168   -2.6194    0.0000 C   0  0  0  0  0  0  0  0  0  0  0  0
    0.7249   -2.2076    0.0000 C   0  0  0  0  0  0  0  0  0  0  0  0
    8.5666   -3.4321    0.0000 C   0  0  0  0  0  0  0  0  0  0  0  0
    8.5666   -2.6359    0.0000 C   0  0  0  0  0  0  0  0  0  0  0  0
    7.8583   -2.2076    0.0000 C   0  0  0  0  0  0  0  0  0  0  0  0
    7.1388   -3.4321    0.0000 C   0  0  0  0  0  0  0  0  0  0  0  0
    2.8666   -3.4431    0.0000 C   0  0  0  0  0  0  0  0  0  0  0  0
    3.5749   -3.8659    0.0000 C   0  0  0  0  0  0  0  0  0  0  0  0
    3.5749   -4.6787    0.0000 C   0  0  0  0  0  0  0  0  0  0  0  0
    4.2998   -5.0905    0.0000 C   0  0  0  0  0  0  0  0  0  0  0  0
    5.0082   -4.6622    0.0000 C   0  0  0  0  0  0  0  0  0  0  0  0
    5.0082   -3.8714    0.0000 C   0  0  0  0  0  0  0  0  0  0  0  0
    4.2833   -3.4431    0.0000 C   0  0  0  0  0  0  0  0  0  0  0  0
    3.8714   -0.2554    0.0000 O   0  0  0  0  0  0  0  0  0  0  0  0
    4.6951   -0.2554    0.0000 O   0  0  0  0  0  0  0  0  0  0  0  0
    2.8748   -2.6276    0.0000 N   0  0  0  0  0  0  0  0  0  0  0  0
    7.8665   -3.8633    0.0000 N   0  0  0  0  0  0  0  0  0  0  0  0
    2.1664   -1.3921    0.0000 N   0  0  0  0  0  0  0  0  0  0  0  0
    4.2833   -0.9802    0.0000 S   0  0  0  0  0  0  0  0  0  0  0  0
  1  6  2  0  0  0  0
  7  8  1  0  0  0  0
  8  9  2  0  0  0  0
  9 10  1  0  0  0  0
 10 11  2  0  0  0  0
 11 12  1  0  0  0  0
  7 12  2  0  0  0  0
  7 13  1  0  0  0  0
  6 14  1  0  0  0  0
 14 15  2  0  0  0  0
  3 15  1  0  0  0  0
 16 17  1  0  0  0  0
 17 18  1  0  0  0  0
  2 18  1  0  0  0  0
  5 19  1  0  0  0  0
 19 20  1  0  0  0  0
 20 21  2  0  0  0  0
 13 21  1  0  0  0  0
 13 22  2  0  0  0  0
  4 22  1  0  0  0  0
 23 24  1  0  0  0  0
 24 25  2  0  0  0  0
 25 26  1  0  0  0  0
 26 27  2  0  0  0  0
 27 28  1  0  0  0  0
 28 29  2  0  0  0  0
 24 29  1  0  0  0  0
 15 32  1  0  0  0  0
 16 32  1  0  0  0  0
 23 32  1  0  0  0  0
 19 33  2  0  0  0  0
 22 33  1  0  0  0  0
  6 34  1  0  0  0  0
 16 34  2  0  0  0  0
 10 35  1  0  0  0  0
 14 35  1  0  0  0  0
 30 35  2  0  0  0  0
 31 35  2  0  0  0  0
M  END
> <ID>
SCHEMBL21135194

> <InChIKey>
LTKLISXYIFHFGD-UHFFFAOYSA-N

> <MW>
493.55

> <Series_Name>
Series_13

$$$$
SCHEMBL21135195
  Mrv1719007161922392D 0   0.00000     0.00000     0

 28 30  0  0  0  0              1 V2000 
    3.5680   -0.1577    0.0000 O   0  0  0  0  0  0  0  0  0  0  0  0
    0.0000   -2.2403    0.0000 C   0  0  0  0  0  0  0  0  0  0  0  0
    5.1943   -2.6470    0.0000 O   0  0  0  0  0  0  0  0  0  0  0  0
   10.0400   -2.2403    0.0000 C   0  0  0  0  0  0  0  0  0  0  0  0
    3.6233   -0.9958    0.0000 C   0  0  0  0  0  0  0  0  0  0  0  0
    7.1746   -2.2292    0.0000 C   0  0  0  0  0  0  0  0  0  0  0  0
    7.1857   -1.4106    0.0000 C   0  0  0  0  0  0  0  0  0  0  0  0
    6.5053   -1.0123    0.0000 C   0  0  0  0  0  0  0  0  0  0  0  0
    5.7419   -1.4051    0.0000 C   0  0  0  0  0  0  0  0  0  0  0  0
    4.3037   -1.4051    0.0000 C   0  0  0  0  0  0  0  0  0  0  0  0
    4.3037   -2.2292    0.0000 C   0  0  0  0  0  0  0  0  0  0  0  0
    5.7419   -2.2237    0.0000 C   0  0  0  0  0  0  0  0  0  0  0  0
    6.4555   -2.6553    0.0000 C   0  0  0  0  0  0  0  0  0  0  0  0
    7.8993   -2.6497    0.0000 C   0  0  0  0  0  0  0  0  0  0  0  0
    2.8709   -2.2292    0.0000 C   0  0  0  0  0  0  0  0  0  0  0  0
    2.1408   -2.6553    0.0000 C   0  0  0  0  0  0  0  0  0  0  0  0
    1.4438   -2.2403    0.0000 C   0  0  0  0  0  0  0  0  0  0  0  0
    0.7136   -2.6553    0.0000 C   0  0  0  0  0  0  0  0  0  0  0  0
    9.3320   -2.6497    0.0000 C   0  0  0  0  0  0  0  0  0  0  0  0
    8.6295   -2.2403    0.0000 C   0  0  0  0  0  0  0  0  0  0  0  0
    9.3431   -3.4517    0.0000 C   0  0  0  0  0  0  0  0  0  0  0  0
    7.8993   -3.4684    0.0000 C   0  0  0  0  0  0  0  0  0  0  0  0
    5.4266   -0.2738    0.0000 O   0  0  0  0  0  0  0  0  0  0  0  0
    4.5968   -0.2738    0.0000 O   0  0  0  0  0  0  0  0  0  0  0  0
    3.5928   -2.6470    0.0000 N   0  0  0  0  0  0  0  0  0  0  0  0
    2.8793   -1.4023    0.0000 N   0  0  0  0  0  0  0  0  0  0  0  0
    8.6212   -3.8915    0.0000 N   0  0  0  0  0  0  0  0  0  0  0  0
    5.0283   -0.9874    0.0000 S   0  0  0  0  0  0  0  0  0  0  0  0
  1  5  2  0  0  0  0
  6  7  1  0  0  0  0
  7  8  2  0  0  0  0
  8  9  1  0  0  0  0
  5 10  1  0  0  0  0
 10 11  2  0  0  0  0
  3 11  1  0  0  0  0
  9 12  2  0  0  0  0
 12 13  1  0  0  0  0
  6 13  2  0  0  0  0
  6 14  1  0  0  0  0
 15 16  1  0  0  0  0
 16 17  1  0  0  0  0
 17 18  1  0  0  0  0
  2 18  1  0  0  0  0
  4 19  1  0  0  0  0
 19 20  2  0  0  0  0
 14 20  1  0  0  0  0
 19 21  1  0  0  0  0
 14 22  2  0  0  0  0
 11 25  1  0  0  0  0
 15 25  1  0  0  0  0
  5 26  1  0  0  0  0
 15 26  2  0  0  0  0
 21 27  2  0  0  0  0
 22 27  1  0  0  0  0
  9 28  1  0  0  0  0
 10 28  1  0  0  0  0
 23 28  2  0  0  0  0
 24 28  2  0  0  0  0
M  END
> <ID>
SCHEMBL21135195

> <InChIKey>
KXBNTXVDTRQLBV-UHFFFAOYSA-N

> <MW>
399.47

> <Series_Name>
Series_13

$$$$
SCHEMBL21135198
  Mrv1719007161922392D 0   0.00000     0.00000     0

 36 39  0  0  0  0              1 V2000 
    3.5661   -0.1576    0.0000 O   0  0  0  0  0  0  0  0  0  0  0  0
    5.1915   -2.6456    0.0000 O   0  0  0  0  0  0  0  0  0  0  0  0
    0.0166   -2.2392    0.0000 C   0  0  0  0  0  0  0  0  0  0  0  0
    0.7132   -3.4334    0.0000 C   0  0  0  0  0  0  0  0  0  0  0  0
   10.0431   -3.8896    0.0000 F   0  0  0  0  0  0  0  0  0  0  0  0
    3.6214   -0.9952    0.0000 C   0  0  0  0  0  0  0  0  0  0  0  0
    7.1709   -2.2116    0.0000 C   0  0  0  0  0  0  0  0  0  0  0  0
    7.1820   -1.4098    0.0000 C   0  0  0  0  0  0  0  0  0  0  0  0
    6.5185   -1.0118    0.0000 C   0  0  0  0  0  0  0  0  0  0  0  0
    5.7389   -1.4043    0.0000 C   0  0  0  0  0  0  0  0  0  0  0  0
    4.3014   -1.3933    0.0000 C   0  0  0  0  0  0  0  0  0  0  0  0
    4.3125   -2.2116    0.0000 C   0  0  0  0  0  0  0  0  0  0  0  0
    5.7389   -2.2226    0.0000 C   0  0  0  0  0  0  0  0  0  0  0  0
    6.4355   -2.6372    0.0000 C   0  0  0  0  0  0  0  0  0  0  0  0
    7.8952   -2.6483    0.0000 C   0  0  0  0  0  0  0  0  0  0  0  0
    2.8584   -2.2116    0.0000 C   0  0  0  0  0  0  0  0  0  0  0  0
    2.1397   -2.6372    0.0000 C   0  0  0  0  0  0  0  0  0  0  0  0
    1.4264   -2.2226    0.0000 C   0  0  0  0  0  0  0  0  0  0  0  0
    0.7132   -2.6483    0.0000 C   0  0  0  0  0  0  0  0  0  0  0  0
    9.3382   -3.4555    0.0000 C   0  0  0  0  0  0  0  0  0  0  0  0
    9.3382   -2.6538    0.0000 C   0  0  0  0  0  0  0  0  0  0  0  0
    8.6416   -2.2392    0.0000 C   0  0  0  0  0  0  0  0  0  0  0  0
    7.8952   -3.4666    0.0000 C   0  0  0  0  0  0  0  0  0  0  0  0
    3.5827   -3.4666    0.0000 C   0  0  0  0  0  0  0  0  0  0  0  0
    4.3014   -3.8812    0.0000 C   0  0  0  0  0  0  0  0  0  0  0  0
    4.9926   -3.4831    0.0000 C   0  0  0  0  0  0  0  0  0  0  0  0
    4.3125   -4.7106    0.0000 C   0  0  0  0  0  0  0  0  0  0  0  0
    5.0257   -5.1252    0.0000 C   0  0  0  0  0  0  0  0  0  0  0  0
    5.7389   -4.6940    0.0000 C   0  0  0  0  0  0  0  0  0  0  0  0
    5.7389   -3.8978    0.0000 C   0  0  0  0  0  0  0  0  0  0  0  0
    4.5944   -0.2737    0.0000 O   0  0  0  0  0  0  0  0  0  0  0  0
    5.4238   -0.2737    0.0000 O   0  0  0  0  0  0  0  0  0  0  0  0
    3.5910   -2.6456    0.0000 N   0  0  0  0  0  0  0  0  0  0  0  0
    8.6167   -3.8896    0.0000 N   0  0  0  0  0  0  0  0  0  0  0  0
    2.8778   -1.4016    0.0000 N   0  0  0  0  0  0  0  0  0  0  0  0
    5.0257   -0.9869    0.0000 S   0  0  0  0  0  0  0  0  0  0  0  0
  1  6  2  0  0  0  0
  7  8  1  0  0  0  0
  8  9  2  0  0  0  0
  9 10  1  0  0  0  0
  6 11  1  0  0  0  0
 11 12  2  0  0  0  0
  2 12  1  0  0  0  0
 10 13  2  0  0  0  0
 13 14  1  0  0  0  0
  7 14  2  0  0  0  0
  7 15  1  0  0  0  0
 16 17  1  0  0  0  0
 17 18  1  0  0  0  0
 18 19  1  0  0  0  0
  3 19  1  0  0  0  0
  4 19  1  0  0  0  0
  5 20  1  0  0  0  0
 20 21  1  0  0  0  0
 21 22  2  0  0  0  0
 15 22  1  0  0  0  0
 15 23  2  0  0  0  0
 24 25  1  0  0  0  0
 25 26  1  0  0  0  0
 25 27  2  0  0  0  0
 27 28  1  0  0  0  0
 28 29  2  0  0  0  0
 29 30  1  0  0  0  0
 26 30  2  0  0  0  0
 12 33  1  0  0  0  0
 16 33  1  0  0  0  0
 24 33  1  0  0  0  0
 20 34  2  0  0  0  0
 23 34  1  0  0  0  0
  6 35  1  0  0  0  0
 16 35  2  0  0  0  0
 10 36  1  0  0  0  0
 11 36  1  0  0  0  0
 31 36  2  0  0  0  0
 32 36  2  0  0  0  0
M  END
> <ID>
SCHEMBL21135198

> <InChIKey>
TWDOWARRPHVDNA-UHFFFAOYSA-N

> <MW>
507.58

> <Series_Name>
Series_13

$$$$
SCHEMBL21135210
  Mrv1719007161922412D 0   0.00000     0.00000     0

 36 39  0  0  0  0              1 V2000 
    4.3029   -0.1649    0.0000 O   0  0  0  0  0  0  0  0  0  0  0  0
    0.0173   -2.6373    0.0000 C   0  0  0  0  0  0  0  0  0  0  0  0
    5.9337   -2.6633    0.0000 O   0  0  0  0  0  0  0  0  0  0  0  0
   10.7832   -2.2468    0.0000 F   0  0  0  0  0  0  0  0  0  0  0  0
    4.3607   -1.0063    0.0000 C   0  0  0  0  0  0  0  0  0  0  0  0
    7.9117   -2.2266    0.0000 C   0  0  0  0  0  0  0  0  0  0  0  0
    7.9117   -1.4227    0.0000 C   0  0  0  0  0  0  0  0  0  0  0  0
    7.2177   -1.0063    0.0000 C   0  0  0  0  0  0  0  0  0  0  0  0
    6.4717   -1.4170    0.0000 C   0  0  0  0  0  0  0  0  0  0  0  0
    5.0316   -1.4170    0.0000 C   0  0  0  0  0  0  0  0  0  0  0  0
    5.0316   -2.2266    0.0000 C   0  0  0  0  0  0  0  0  0  0  0  0
    6.4717   -2.2383    0.0000 C   0  0  0  0  0  0  0  0  0  0  0  0
    7.2003   -2.6546    0.0000 C   0  0  0  0  0  0  0  0  0  0  0  0
    8.6288   -2.6488    0.0000 C   0  0  0  0  0  0  0  0  0  0  0  0
    3.5799   -2.2266    0.0000 C   0  0  0  0  0  0  0  0  0  0  0  0
    2.8628   -2.6546    0.0000 C   0  0  0  0  0  0  0  0  0  0  0  0
    2.1514   -2.2383    0.0000 C   0  0  0  0  0  0  0  0  0  0  0  0
    1.4227   -2.6546    0.0000 C   0  0  0  0  0  0  0  0  0  0  0  0
    0.7114   -2.2383    0.0000 C   0  0  0  0  0  0  0  0  0  0  0  0
   10.0690   -2.6488    0.0000 C   0  0  0  0  0  0  0  0  0  0  0  0
    9.3519   -2.2383    0.0000 C   0  0  0  0  0  0  0  0  0  0  0  0
    8.6405   -3.4874    0.0000 C   0  0  0  0  0  0  0  0  0  0  0  0
   10.0805   -3.4701    0.0000 C   0  0  0  0  0  0  0  0  0  0  0  0
    4.3202   -3.4874    0.0000 C   0  0  0  0  0  0  0  0  0  0  0  0
    5.0316   -3.9154    0.0000 C   0  0  0  0  0  0  0  0  0  0  0  0
    5.0316   -4.7366    0.0000 C   0  0  0  0  0  0  0  0  0  0  0  0
    5.7082   -5.1356    0.0000 C   0  0  0  0  0  0  0  0  0  0  0  0
    6.4717   -4.7193    0.0000 C   0  0  0  0  0  0  0  0  0  0  0  0
    6.4717   -3.9212    0.0000 C   0  0  0  0  0  0  0  0  0  0  0  0
    5.8470   -3.5394    0.0000 C   0  0  0  0  0  0  0  0  0  0  0  0
    5.3266   -0.2863    0.0000 O   0  0  0  0  0  0  0  0  0  0  0  0
    6.1594   -0.2863    0.0000 O   0  0  0  0  0  0  0  0  0  0  0  0
    4.3289   -2.6633    0.0000 N   0  0  0  0  0  0  0  0  0  0  0  0
    3.6002   -1.4141    0.0000 N   0  0  0  0  0  0  0  0  0  0  0  0
    9.3605   -3.9125    0.0000 N   0  0  0  0  0  0  0  0  0  0  0  0
    5.7429   -0.9976    0.0000 S   0  0  0  0  0  0  0  0  0  0  0  0
  1  5  2  0  0  0  0
  6  7  1  0  0  0  0
  7  8  2  0  0  0  0
  8  9  1  0  0  0  0
  5 10  1  0  0  0  0
 10 11  2  0  0  0  0
  3 11  1  0  0  0  0
  9 12  2  0  0  0  0
 12 13  1  0  0  0  0
  6 13  2  0  0  0  0
  6 14  1  0  0  0  0
 15 16  1  0  0  0  0
 16 17  1  0  0  0  0
 17 18  1  0  0  0  0
 18 19  1  0  0  0  0
  2 19  1  0  0  0  0
  4 20  1  0  0  0  0
 20 21  2  0  0  0  0
 14 21  1  0  0  0  0
 14 22  2  0  0  0  0
 20 23  1  0  0  0  0
 24 25  1  0  0  0  0
 25 26  2  0  0  0  0
 26 27  1  0  0  0  0
 27 28  2  0  0  0  0
 28 29  1  0  0  0  0
 29 30  2  0  0  0  0
 25 30  1  0  0  0  0
 11 33  1  0  0  0  0
 15 33  1  0  0  0  0
 24 33  1  0  0  0  0
  5 34  1  0  0  0  0
 15 34  2  0  0  0  0
 22 35  1  0  0  0  0
 23 35  2  0  0  0  0
  9 36  1  0  0  0  0
 10 36  1  0  0  0  0
 31 36  2  0  0  0  0
 32 36  2  0  0  0  0
M  END
> <ID>
SCHEMBL21135210

> <InChIKey>
RGHGZUJTDXZPRU-UHFFFAOYSA-N

> <MW>
507.58

> <Series_Name>
Series_13

$$$$
SCHEMBL21135211
  Mrv1719007161922412D 0   0.00000     0.00000     0

 38 41  0  0  1  0              1 V2000 
    5.0980   -3.9820    0.0000 C   0  0  0  0  0  0  0  0  0  0  0  0
    5.1045   -4.8167    0.0000 C   0  0  0  0  0  0  0  0  0  0  0  0
    4.3856   -3.5684    0.0000 C   0  0  1  0  0  0  0  0  0  0  0  0
    5.8077   -3.5820    0.0000 C   0  0  0  0  0  0  0  0  0  0  0  0
    6.5279   -3.9864    0.0000 C   0  0  0  0  0  0  0  0  0  0  0  0
    5.8177   -5.2229    0.0000 C   0  0  0  0  0  0  0  0  0  0  0  0
    6.4992   -4.8310    0.0000 C   0  0  0  0  0  0  0  0  0  0  0  0
    8.6861   -2.7407    0.0000 C   0  0  0  0  0  0  0  0  0  0  0  0
    8.6992   -3.5758    0.0000 C   0  0  0  0  0  0  0  0  0  0  0  0
    7.9481   -2.3314    0.0000 C   0  0  0  0  0  0  0  0  0  0  0  0
    6.5385   -2.3336    0.0000 C   0  0  0  0  0  0  0  0  0  0  0  0
    7.2458   -2.7400    0.0000 C   0  0  0  0  0  0  0  0  0  0  0  0
    6.5430   -1.5013    0.0000 C   0  0  0  0  0  0  0  0  0  0  0  0
    5.7844   -1.0705    0.0000 S   0  0  0  0  0  0  0  0  0  0  0  0
    7.2486   -1.0970    0.0000 C   0  0  0  0  0  0  0  0  0  0  0  0
    7.9665   -1.4970    0.0000 C   0  0  0  0  0  0  0  0  0  0  0  0
    9.3974   -2.3248    0.0000 C   0  0  0  0  0  0  0  0  0  0  0  0
   10.1203   -2.7390    0.0000 C   0  0  0  0  0  0  0  0  0  0  0  0
   10.8090   -2.3138    0.0000 F   0  0  0  0  0  0  0  0  0  0  0  0
    9.3931   -3.9714    0.0000 N   0  0  0  0  0  0  0  0  0  0  0  0
   10.1162   -3.5621    0.0000 C   0  0  0  0  0  0  0  0  0  0  0  0
    0.1037   -2.7281    0.0000 C   0  0  0  0  0  0  0  0  0  0  0  0
    0.8011   -2.3268    0.0000 C   0  0  0  0  0  0  0  0  0  0  0  0
    2.2317   -2.3247    0.0000 C   0  0  0  0  0  0  0  0  0  0  0  0
    2.9633   -2.7308    0.0000 C   0  0  0  0  0  0  0  0  0  0  0  0
    3.6128   -2.3663    0.0000 C   0  0  0  0  0  0  0  0  0  0  0  0
    3.6606   -1.4849    0.0000 N   0  0  0  0  0  0  0  0  0  0  0  0
    4.3857   -2.7282    0.0000 N   0  0  0  0  0  0  0  0  0  0  0  0
    1.5179   -2.7434    0.0000 C   0  0  0  0  0  0  0  0  0  0  0  0
    5.1015   -2.3289    0.0000 C   0  0  0  0  0  0  0  0  0  0  0  0
    5.1052   -1.5039    0.0000 C   0  0  0  0  0  0  0  0  0  0  0  0
    4.3307   -1.1093    0.0000 C   0  0  0  0  0  0  0  0  0  0  0  0
    4.3685   -0.2417    0.0000 O   0  0  0  0  0  0  0  0  0  0  0  0
    5.9743   -2.7282    0.0000 O   0  0  0  0  0  0  0  0  0  0  0  0
    5.3872   -0.3626    0.0000 O   0  0  0  0  0  0  0  0  0  0  0  0
    2.9354   -3.5570    0.0000 O   0  0  0  0  0  0  0  0  0  0  0  0
    3.6872   -3.9967    0.0000 C   0  0  0  0  0  0  0  0  0  0  0  0
    6.2161   -0.3626    0.0000 O   0  0  0  0  0  0  0  0  0  0  0  0
  1  2  2  0  0  0  0
  1  4  1  0  0  0  0
  2  6  1  0  0  0  0
  3  1  1  0  0  0  0
  3 37  1  6  0  0  0
  3 28  1  0  0  0  0
  4  5  2  0  0  0  0
  6  7  2  0  0  0  0
  7  5  1  0  0  0  0
  8  9  2  0  0  0  0
  8 17  1  0  0  0  0
  9 20  1  0  0  0  0
 10  8  1  0  0  0  0
 10 16  1  0  0  0  0
 11 12  1  0  0  0  0
 11 13  2  0  0  0  0
 12 10  2  0  0  0  0
 13 14  1  0  0  0  0
 13 15  1  0  0  0  0
 14 38  2  0  0  0  0
 15 16  2  0  0  0  0
 17 18  2  0  0  0  0
 18 19  1  0  0  0  0
 20 21  2  0  0  0  0
 21 18  1  0  0  0  0
 22 23  1  0  0  0  0
 24 25  1  0  0  0  0
 24 29  1  0  0  0  0
 25 26  1  0  0  0  0
 26 27  2  0  0  0  0
 27 32  1  0  0  0  0
 28 26  1  0  0  0  0
 28 30  1  0  0  0  0
 29 23  1  0  0  0  0
 30 31  2  0  0  0  0
 31 32  1  0  0  0  0
 31 14  1  0  0  0  0
 32 33  2  0  0  0  0
 34 30  1  0  0  0  0
 35 14  2  0  0  0  0
 36 37  1  0  0  0  0
M  END
> <ID>
SCHEMBL21135211

> <InChIKey>
UZUASZFMSZLMMP-DEOSSOPVSA-N

> <MW>
537.61

> <Series_Name>
Series_13

$$$$
SCHEMBL21135212
  Mrv1719007161922412D 0   0.00000     0.00000     0

 37 40  0  0  0  0              1 V2000 
    3.5468   -0.1567    0.0000 O   0  0  0  0  0  0  0  0  0  0  0  0
    8.5617   -1.4023    0.0000 C   0  0  0  0  0  0  0  0  0  0  0  0
    5.1634   -2.6312    0.0000 O   0  0  0  0  0  0  0  0  0  0  0  0
    6.4254   -3.4560    0.0000 F   0  0  0  0  0  0  0  0  0  0  0  0
    0.0165   -2.2270    0.0000 C   0  0  0  0  0  0  0  0  0  0  0  0
    9.9886   -3.8685    0.0000 F   0  0  0  0  0  0  0  0  0  0  0  0
    3.6018   -0.9898    0.0000 C   0  0  0  0  0  0  0  0  0  0  0  0
    7.1321   -2.1995    0.0000 C   0  0  0  0  0  0  0  0  0  0  0  0
    7.1430   -1.4023    0.0000 C   0  0  0  0  0  0  0  0  0  0  0  0
    6.4832   -1.0063    0.0000 C   0  0  0  0  0  0  0  0  0  0  0  0
    5.7078   -1.3967    0.0000 C   0  0  0  0  0  0  0  0  0  0  0  0
    4.2781   -1.3857    0.0000 C   0  0  0  0  0  0  0  0  0  0  0  0
    4.2891   -2.1995    0.0000 C   0  0  0  0  0  0  0  0  0  0  0  0
    8.5617   -2.1995    0.0000 C   0  0  0  0  0  0  0  0  0  0  0  0
    5.7078   -2.2105    0.0000 C   0  0  0  0  0  0  0  0  0  0  0  0
    6.4226   -2.6230    0.0000 C   0  0  0  0  0  0  0  0  0  0  0  0
    2.8428   -2.1995    0.0000 C   0  0  0  0  0  0  0  0  0  0  0  0
    2.1280   -2.6230    0.0000 C   0  0  0  0  0  0  0  0  0  0  0  0
    7.8523   -2.6340    0.0000 C   0  0  0  0  0  0  0  0  0  0  0  0
    0.6928   -2.6230    0.0000 C   0  0  0  0  0  0  0  0  0  0  0  0
    7.8523   -3.4478    0.0000 C   0  0  0  0  0  0  0  0  0  0  0  0
    8.5452   -3.8602    0.0000 C   0  0  0  0  0  0  0  0  0  0  0  0
    9.2766   -3.4368    0.0000 C   0  0  0  0  0  0  0  0  0  0  0  0
    3.5632   -3.4478    0.0000 C   0  0  0  0  0  0  0  0  0  0  0  0
    4.2781   -3.8602    0.0000 C   0  0  0  0  0  0  0  0  0  0  0  0
    4.9655   -3.4643    0.0000 C   0  0  0  0  0  0  0  0  0  0  0  0
    4.2891   -4.6851    0.0000 C   0  0  0  0  0  0  0  0  0  0  0  0
    4.9985   -5.0974    0.0000 C   0  0  0  0  0  0  0  0  0  0  0  0
    5.7078   -4.6685    0.0000 C   0  0  0  0  0  0  0  0  0  0  0  0
    5.7078   -3.8767    0.0000 C   0  0  0  0  0  0  0  0  0  0  0  0
    4.5695   -0.2557    0.0000 O   0  0  0  0  0  0  0  0  0  0  0  0
    5.3944   -0.2557    0.0000 O   0  0  0  0  0  0  0  0  0  0  0  0
    3.5715   -2.6312    0.0000 N   0  0  0  0  0  0  0  0  0  0  0  0
    9.2958   -2.6312    0.0000 N   0  0  0  0  0  0  0  0  0  0  0  0
    1.4187   -2.2188    0.0000 O   0  0  0  0  0  0  0  0  0  0  0  0
    2.8621   -1.3940    0.0000 N   0  0  0  0  0  0  0  0  0  0  0  0
    4.9985   -0.9815    0.0000 S   0  0  0  0  0  0  0  0  0  0  0  0
  1  7  2  0  0  0  0
  8  9  1  0  0  0  0
  9 10  2  0  0  0  0
 10 11  1  0  0  0  0
  7 12  1  0  0  0  0
 12 13  2  0  0  0  0
  3 13  1  0  0  0  0
  2 14  1  0  0  0  0
 11 15  2  0  0  0  0
 15 16  1  0  0  0  0
  8 16  2  0  0  0  0
  4 16  1  0  0  0  0
 17 18  1  0  0  0  0
  8 19  1  0  0  0  0
 14 19  1  0  0  0  0
  5 20  1  0  0  0  0
 19 21  2  0  0  0  0
 21 22  1  0  0  0  0
 22 23  2  0  0  0  0
  6 23  1  0  0  0  0
 24 25  1  0  0  0  0
 25 26  1  0  0  0  0
 25 27  2  0  0  0  0
 27 28  1  0  0  0  0
 28 29  2  0  0  0  0
 29 30  1  0  0  0  0
 26 30  2  0  0  0  0
 13 33  1  0  0  0  0
 17 33  1  0  0  0  0
 24 33  1  0  0  0  0
 14 34  2  0  0  0  0
 23 34  1  0  0  0  0
 18 35  1  0  0  0  0
 20 35  1  0  0  0  0
  7 36  1  0  0  0  0
 17 36  2  0  0  0  0
 11 37  1  0  0  0  0
 12 37  1  0  0  0  0
 31 37  2  0  0  0  0
 32 37  2  0  0  0  0
M  END
> <ID>
SCHEMBL21135212

> <InChIKey>
QHIOPHYLBQNIHK-UHFFFAOYSA-N

> <MW>
527.54

> <Series_Name>
Series_13

$$$$
SCHEMBL21135216
  Mrv1719007161922422D 0   0.00000     0.00000     0

 29 31  0  0  0  0              1 V2000 
    3.5659   -0.1576    0.0000 O   0  0  0  0  0  0  0  0  0  0  0  0
    0.0166   -2.2390    0.0000 C   0  0  0  0  0  0  0  0  0  0  0  0
    5.1912   -2.6453    0.0000 O   0  0  0  0  0  0  0  0  0  0  0  0
    7.1980   -3.8644    0.0000 C   0  0  0  0  0  0  0  0  0  0  0  0
   10.0424   -3.8893    0.0000 F   0  0  0  0  0  0  0  0  0  0  0  0
    3.6211   -0.9951    0.0000 C   0  0  0  0  0  0  0  0  0  0  0  0
    7.1704   -2.2114    0.0000 C   0  0  0  0  0  0  0  0  0  0  0  0
    7.1815   -1.4098    0.0000 C   0  0  0  0  0  0  0  0  0  0  0  0
    6.5181   -1.0117    0.0000 C   0  0  0  0  0  0  0  0  0  0  0  0
    5.7386   -1.4043    0.0000 C   0  0  0  0  0  0  0  0  0  0  0  0
    4.3011   -1.3877    0.0000 C   0  0  0  0  0  0  0  0  0  0  0  0
    4.3122   -2.2114    0.0000 C   0  0  0  0  0  0  0  0  0  0  0  0
    5.7386   -2.2225    0.0000 C   0  0  0  0  0  0  0  0  0  0  0  0
    6.4351   -2.6371    0.0000 C   0  0  0  0  0  0  0  0  0  0  0  0
    7.8836   -2.6315    0.0000 C   0  0  0  0  0  0  0  0  0  0  0  0
    2.8582   -2.2114    0.0000 C   0  0  0  0  0  0  0  0  0  0  0  0
    2.1395   -2.6371    0.0000 C   0  0  0  0  0  0  0  0  0  0  0  0
    1.4263   -2.2225    0.0000 C   0  0  0  0  0  0  0  0  0  0  0  0
    0.6966   -2.6371    0.0000 C   0  0  0  0  0  0  0  0  0  0  0  0
    9.3376   -3.4553    0.0000 C   0  0  0  0  0  0  0  0  0  0  0  0
    9.3376   -2.6536    0.0000 C   0  0  0  0  0  0  0  0  0  0  0  0
    8.6078   -2.2225    0.0000 C   0  0  0  0  0  0  0  0  0  0  0  0
    7.8836   -3.4553    0.0000 C   0  0  0  0  0  0  0  0  0  0  0  0
    4.5941   -0.2571    0.0000 O   0  0  0  0  0  0  0  0  0  0  0  0
    5.4234   -0.2571    0.0000 O   0  0  0  0  0  0  0  0  0  0  0  0
    3.5907   -2.6453    0.0000 N   0  0  0  0  0  0  0  0  0  0  0  0
    2.8776   -1.4015    0.0000 N   0  0  0  0  0  0  0  0  0  0  0  0
    8.6161   -3.8893    0.0000 N   0  0  0  0  0  0  0  0  0  0  0  0
    5.0254   -0.9868    0.0000 S   0  0  0  0  0  0  0  0  0  0  0  0
  1  6  2  0  0  0  0
  7  8  1  0  0  0  0
  8  9  2  0  0  0  0
  9 10  1  0  0  0  0
  6 11  1  0  0  0  0
 11 12  2  0  0  0  0
  3 12  1  0  0  0  0
 10 13  2  0  0  0  0
 13 14  1  0  0  0  0
  7 14  2  0  0  0  0
  7 15  1  0  0  0  0
 16 17  1  0  0  0  0
 17 18  1  0  0  0  0
 18 19  1  0  0  0  0
  2 19  1  0  0  0  0
  5 20  1  0  0  0  0
 20 21  1  0  0  0  0
 21 22  2  0  0  0  0
 15 22  1  0  0  0  0
 15 23  2  0  0  0  0
  4 23  1  0  0  0  0
 12 26  1  0  0  0  0
 16 26  1  0  0  0  0
  6 27  1  0  0  0  0
 16 27  2  0  0  0  0
 20 28  2  0  0  0  0
 23 28  1  0  0  0  0
 10 29  1  0  0  0  0
 11 29  1  0  0  0  0
 24 29  2  0  0  0  0
 25 29  2  0  0  0  0
M  END
> <ID>
SCHEMBL21135216

> <InChIKey>
LEJCTEDTQAWVSX-UHFFFAOYSA-N

> <MW>
417.46

> <Series_Name>
Series_13

$$$$
SCHEMBL21135220
  Mrv1719007161922432D 0   0.00000     0.00000     0

 39 42  0  0  1  0              1 V2000 
    5.0916   -3.9770    0.0000 C   0  0  0  0  0  0  0  0  0  0  0  0
    5.0981   -4.8107    0.0000 C   0  0  0  0  0  0  0  0  0  0  0  0
    4.3801   -3.5640    0.0000 C   0  0  1  0  0  0  0  0  0  0  0  0
    5.8003   -3.5775    0.0000 C   0  0  0  0  0  0  0  0  0  0  0  0
    6.5197   -3.9814    0.0000 C   0  0  0  0  0  0  0  0  0  0  0  0
    5.8104   -5.2162    0.0000 C   0  0  0  0  0  0  0  0  0  0  0  0
    6.4910   -4.8249    0.0000 C   0  0  0  0  0  0  0  0  0  0  0  0
    7.9381   -2.3285    0.0000 C   0  0  0  0  0  0  0  0  0  0  0  0
    8.6841   -2.7377    0.0000 C   0  0  0  0  0  0  0  0  0  0  0  0
    6.5302   -2.3307    0.0000 C   0  0  0  0  0  0  0  0  0  0  0  0
    7.2367   -2.7366    0.0000 C   0  0  0  0  0  0  0  0  0  0  0  0
    6.5348   -1.4994    0.0000 C   0  0  0  0  0  0  0  0  0  0  0  0
    5.7771   -1.0692    0.0000 S   0  0  0  0  0  0  0  0  0  0  0  0
    7.2395   -1.0957    0.0000 C   0  0  0  0  0  0  0  0  0  0  0  0
    7.9564   -1.4951    0.0000 C   0  0  0  0  0  0  0  0  0  0  0  0
    9.3874   -2.3315    0.0000 C   0  0  0  0  0  0  0  0  0  0  0  0
   10.1123   -2.7398    0.0000 C   0  0  0  0  0  0  0  0  0  0  0  0
   10.1107   -3.5666    0.0000 C   0  0  0  0  0  0  0  0  0  0  0  0
   10.7954   -3.9664    0.0000 F   0  0  0  0  0  0  0  0  0  0  0  0
    9.3813   -3.9664    0.0000 N   0  0  0  0  0  0  0  0  0  0  0  0
    8.6807   -3.5672    0.0000 C   0  0  0  0  0  0  0  0  0  0  0  0
    7.9465   -3.9828    0.0000 C   0  0  0  0  0  0  0  0  0  0  0  0
    0.1035   -2.7246    0.0000 C   0  0  0  0  0  0  0  0  0  0  0  0
    0.8001   -2.3239    0.0000 C   0  0  0  0  0  0  0  0  0  0  0  0
    2.2289   -2.3218    0.0000 C   0  0  0  0  0  0  0  0  0  0  0  0
    2.9596   -2.7274    0.0000 C   0  0  0  0  0  0  0  0  0  0  0  0
    3.6083   -2.3633    0.0000 C   0  0  0  0  0  0  0  0  0  0  0  0
    3.6560   -1.4831    0.0000 N   0  0  0  0  0  0  0  0  0  0  0  0
    4.3803   -2.7247    0.0000 N   0  0  0  0  0  0  0  0  0  0  0  0
    1.5159   -2.7400    0.0000 C   0  0  0  0  0  0  0  0  0  0  0  0
    5.0951   -2.3260    0.0000 C   0  0  0  0  0  0  0  0  0  0  0  0
    5.0988   -1.5020    0.0000 C   0  0  0  0  0  0  0  0  0  0  0  0
    4.3252   -1.1079    0.0000 C   0  0  0  0  0  0  0  0  0  0  0  0
    4.3630   -0.2414    0.0000 O   0  0  0  0  0  0  0  0  0  0  0  0
    5.9668   -2.7247    0.0000 O   0  0  0  0  0  0  0  0  0  0  0  0
    5.3805   -0.3621    0.0000 O   0  0  0  0  0  0  0  0  0  0  0  0
    2.9317   -3.5525    0.0000 O   0  0  0  0  0  0  0  0  0  0  0  0
    3.6826   -3.9916    0.0000 C   0  0  0  0  0  0  0  0  0  0  0  0
    6.2083   -0.3621    0.0000 O   0  0  0  0  0  0  0  0  0  0  0  0
  1  2  2  0  0  0  0
  1  4  1  0  0  0  0
  2  6  1  0  0  0  0
  3  1  1  0  0  0  0
  3 38  1  6  0  0  0
  3 29  1  0  0  0  0
  4  5  2  0  0  0  0
  6  7  2  0  0  0  0
  7  5  1  0  0  0  0
  8  9  1  0  0  0  0
  8 15  1  0  0  0  0
  9 16  1  0  0  0  0
 10 11  1  0  0  0  0
 10 12  2  0  0  0  0
 11  8  2  0  0  0  0
 12 13  1  0  0  0  0
 12 14  1  0  0  0  0
 13 39  2  0  0  0  0
 14 15  2  0  0  0  0
 16 17  2  0  0  0  0
 18 17  1  0  0  0  0
 18 19  1  0  0  0  0
 20 18  2  0  0  0  0
 20 21  1  0  0  0  0
 21  9  2  0  0  0  0
 22 21  1  0  0  0  0
 23 24  1  0  0  0  0
 25 26  1  0  0  0  0
 25 30  1  0  0  0  0
 26 27  1  0  0  0  0
 27 28  2  0  0  0  0
 28 33  1  0  0  0  0
 29 27  1  0  0  0  0
 29 31  1  0  0  0  0
 30 24  1  0  0  0  0
 31 32  2  0  0  0  0
 32 33  1  0  0  0  0
 32 13  1  0  0  0  0
 33 34  2  0  0  0  0
 35 31  1  0  0  0  0
 36 13  2  0  0  0  0
 37 38  1  0  0  0  0
M  END
> <ID>
SCHEMBL21135220

> <InChIKey>
SCFIKBCICDCNIL-DEOSSOPVSA-N

> <MW>
551.63

> <Series_Name>
Series_13

$$$$
SCHEMBL21135221
  Mrv1719007161922432D 0   0.00000     0.00000     0

 37 40  0  0  0  0              1 V2000 
    4.2921   -0.1644    0.0000 O   0  0  0  0  0  0  0  0  0  0  0  0
    0.0173   -2.6306    0.0000 C   0  0  0  0  0  0  0  0  0  0  0  0
    5.9189   -2.6566    0.0000 O   0  0  0  0  0  0  0  0  0  0  0  0
    7.8919   -3.8940    0.0000 C   0  0  0  0  0  0  0  0  0  0  0  0
   10.7562   -3.9027    0.0000 F   0  0  0  0  0  0  0  0  0  0  0  0
    4.3498   -1.0038    0.0000 C   0  0  0  0  0  0  0  0  0  0  0  0
    7.8919   -2.2210    0.0000 C   0  0  0  0  0  0  0  0  0  0  0  0
    7.8919   -1.4191    0.0000 C   0  0  0  0  0  0  0  0  0  0  0  0
    7.1996   -1.0038    0.0000 C   0  0  0  0  0  0  0  0  0  0  0  0
    6.4554   -1.4134    0.0000 C   0  0  0  0  0  0  0  0  0  0  0  0
    5.0189   -1.4134    0.0000 C   0  0  0  0  0  0  0  0  0  0  0  0
    5.0189   -2.2210    0.0000 C   0  0  0  0  0  0  0  0  0  0  0  0
    6.4554   -2.2326    0.0000 C   0  0  0  0  0  0  0  0  0  0  0  0
    7.1824   -2.6480    0.0000 C   0  0  0  0  0  0  0  0  0  0  0  0
    8.6072   -2.6421    0.0000 C   0  0  0  0  0  0  0  0  0  0  0  0
    3.5710   -2.2210    0.0000 C   0  0  0  0  0  0  0  0  0  0  0  0
    2.8556   -2.6480    0.0000 C   0  0  0  0  0  0  0  0  0  0  0  0
    2.1461   -2.2326    0.0000 C   0  0  0  0  0  0  0  0  0  0  0  0
    1.4191   -2.6480    0.0000 C   0  0  0  0  0  0  0  0  0  0  0  0
    0.7096   -2.2326    0.0000 C   0  0  0  0  0  0  0  0  0  0  0  0
   10.0552   -3.4671    0.0000 C   0  0  0  0  0  0  0  0  0  0  0  0
   10.0552   -2.6652    0.0000 C   0  0  0  0  0  0  0  0  0  0  0  0
    9.3284   -2.2326    0.0000 C   0  0  0  0  0  0  0  0  0  0  0  0
    8.6072   -3.4671    0.0000 C   0  0  0  0  0  0  0  0  0  0  0  0
    4.3094   -3.4787    0.0000 C   0  0  0  0  0  0  0  0  0  0  0  0
    5.0189   -3.9056    0.0000 C   0  0  0  0  0  0  0  0  0  0  0  0
    5.0189   -4.7248    0.0000 C   0  0  0  0  0  0  0  0  0  0  0  0
    5.6939   -5.1228    0.0000 C   0  0  0  0  0  0  0  0  0  0  0  0
    6.4554   -4.7074    0.0000 C   0  0  0  0  0  0  0  0  0  0  0  0
    6.4554   -3.9113    0.0000 C   0  0  0  0  0  0  0  0  0  0  0  0
    5.8324   -3.5306    0.0000 C   0  0  0  0  0  0  0  0  0  0  0  0
    5.3132   -0.2856    0.0000 O   0  0  0  0  0  0  0  0  0  0  0  0
    6.1439   -0.2856    0.0000 O   0  0  0  0  0  0  0  0  0  0  0  0
    4.3180   -2.6566    0.0000 N   0  0  0  0  0  0  0  0  0  0  0  0
    9.3370   -3.9027    0.0000 N   0  0  0  0  0  0  0  0  0  0  0  0
    3.5911   -1.4105    0.0000 N   0  0  0  0  0  0  0  0  0  0  0  0
    5.7285   -0.9951    0.0000 S   0  0  0  0  0  0  0  0  0  0  0  0
  1  6  2  0  0  0  0
  7  8  1  0  0  0  0
  8  9  2  0  0  0  0
  9 10  1  0  0  0  0
  6 11  1  0  0  0  0
 11 12  2  0  0  0  0
  3 12  1  0  0  0  0
 10 13  2  0  0  0  0
 13 14  1  0  0  0  0
  7 14  2  0  0  0  0
  7 15  1  0  0  0  0
 16 17  1  0  0  0  0
 17 18  1  0  0  0  0
 18 19  1  0  0  0  0
 19 20  1  0  0  0  0
  2 20  1  0  0  0  0
  5 21  1  0  0  0  0
 21 22  1  0  0  0  0
 22 23  2  0  0  0  0
 15 23  1  0  0  0  0
 15 24  2  0  0  0  0
  4 24  1  0  0  0  0
 25 26  1  0  0  0  0
 26 27  2  0  0  0  0
 27 28  1  0  0  0  0
 28 29  2  0  0  0  0
 29 30  1  0  0  0  0
 30 31  2  0  0  0  0
 26 31  1  0  0  0  0
 12 34  1  0  0  0  0
 16 34  1  0  0  0  0
 25 34  1  0  0  0  0
 21 35  2  0  0  0  0
 24 35  1  0  0  0  0
  6 36  1  0  0  0  0
 16 36  2  0  0  0  0
 10 37  1  0  0  0  0
 11 37  1  0  0  0  0
 32 37  2  0  0  0  0
 33 37  2  0  0  0  0
M  END
> <ID>
SCHEMBL21135221

> <InChIKey>
HYFPRGIZDMGXHM-UHFFFAOYSA-N

> <MW>
521.61

> <Series_Name>
Series_13

$$$$
SCHEMBL21135223
  Mrv1719007161922442D 0   0.00000     0.00000     0

 28 30  0  0  0  0              1 V2000 
    3.5713   -0.1346    0.0000 O   0  0  0  0  0  0  0  0  0  0  0  0
    8.5881   -1.3888    0.0000 C   0  0  0  0  0  0  0  0  0  0  0  0
    5.1586   -2.6147    0.0000 O   0  0  0  0  0  0  0  0  0  0  0  0
    0.0142   -2.2108    0.0000 C   0  0  0  0  0  0  0  0  0  0  0  0
    3.6185   -0.9778    0.0000 C   0  0  0  0  0  0  0  0  0  0  0  0
    7.1568   -2.1872    0.0000 C   0  0  0  0  0  0  0  0  0  0  0  0
    7.1568   -1.3888    0.0000 C   0  0  0  0  0  0  0  0  0  0  0  0
    6.4340   -0.9637    0.0000 C   0  0  0  0  0  0  0  0  0  0  0  0
    5.7160   -1.3700    0.0000 C   0  0  0  0  0  0  0  0  0  0  0  0
    5.7963   -2.2533    0.0000 C   0  0  0  0  0  0  0  0  0  0  0  0
    6.4340   -2.6218    0.0000 C   0  0  0  0  0  0  0  0  0  0  0  0
    7.8983   -2.5887    0.0000 C   0  0  0  0  0  0  0  0  0  0  0  0
    4.2846   -1.3700    0.0000 C   0  0  0  0  0  0  0  0  0  0  0  0
    4.2940   -2.1872    0.0000 C   0  0  0  0  0  0  0  0  0  0  0  0
    8.5786   -2.1872    0.0000 C   0  0  0  0  0  0  0  0  0  0  0  0
    2.8533   -2.1872    0.0000 C   0  0  0  0  0  0  0  0  0  0  0  0
    2.1399   -2.6218    0.0000 C   0  0  0  0  0  0  0  0  0  0  0  0
    7.8796   -3.4437    0.0000 C   0  0  0  0  0  0  0  0  0  0  0  0
    8.5881   -3.8548    0.0000 C   0  0  0  0  0  0  0  0  0  0  0  0
    9.3109   -3.4295    0.0000 C   0  0  0  0  0  0  0  0  0  0  0  0
    0.7085   -2.6218    0.0000 C   0  0  0  0  0  0  0  0  0  0  0  0
    5.4136   -0.2481    0.0000 O   0  0  0  0  0  0  0  0  0  0  0  0
    4.5775   -0.2481    0.0000 O   0  0  0  0  0  0  0  0  0  0  0  0
    9.3038   -2.6147    0.0000 N   0  0  0  0  0  0  0  0  0  0  0  0
    3.5784   -2.6147    0.0000 N   0  0  0  0  0  0  0  0  0  0  0  0
    1.4172   -2.2037    0.0000 O   0  0  0  0  0  0  0  0  0  0  0  0
    2.8698   -1.3817    0.0000 N   0  0  0  0  0  0  0  0  0  0  0  0
    5.0026   -0.9708    0.0000 S   0  0  0  0  0  0  0  0  0  0  0  0
  1  5  2  0  0  0  0
  6  7  1  0  0  0  0
  7  8  2  0  0  0  0
  8  9  1  0  0  0  0
  9 10  2  0  0  0  0
 10 11  1  0  0  0  0
  6 11  2  0  0  0  0
  6 12  1  0  0  0  0
  5 13  1  0  0  0  0
 13 14  2  0  0  0  0
  3 14  1  0  0  0  0
  2 15  1  0  0  0  0
 12 15  1  0  0  0  0
 16 17  1  0  0  0  0
 12 18  2  0  0  0  0
 18 19  1  0  0  0  0
 19 20  2  0  0  0  0
  4 21  1  0  0  0  0
 15 24  2  0  0  0  0
 20 24  1  0  0  0  0
 14 25  1  0  0  0  0
 16 25  1  0  0  0  0
 17 26  1  0  0  0  0
 21 26  1  0  0  0  0
  5 27  1  0  0  0  0
 16 27  2  0  0  0  0
  9 28  1  0  0  0  0
 13 28  1  0  0  0  0
 22 28  2  0  0  0  0
 23 28  2  0  0  0  0
M  END
> <ID>
SCHEMBL21135223

> <InChIKey>
FWPUKEMSVOFIKG-UHFFFAOYSA-N

> <MW>
401.44

> <Series_Name>
Series_13

$$$$
SCHEMBL21135226
  Mrv1719007161922442D 0   0.00000     0.00000     0

 35 38  0  0  0  0              1 V2000 
    3.5661   -0.1576    0.0000 O   0  0  0  0  0  0  0  0  0  0  0  0
    0.0166   -2.2392    0.0000 C   0  0  0  0  0  0  0  0  0  0  0  0
    5.1916   -2.6456    0.0000 O   0  0  0  0  0  0  0  0  0  0  0  0
   10.0431   -3.8895    0.0000 F   0  0  0  0  0  0  0  0  0  0  0  0
    3.6214   -0.9952    0.0000 C   0  0  0  0  0  0  0  0  0  0  0  0
    7.1709   -2.2115    0.0000 C   0  0  0  0  0  0  0  0  0  0  0  0
    7.1820   -1.4098    0.0000 C   0  0  0  0  0  0  0  0  0  0  0  0
    6.5185   -1.0118    0.0000 C   0  0  0  0  0  0  0  0  0  0  0  0
    5.7390   -1.4043    0.0000 C   0  0  0  0  0  0  0  0  0  0  0  0
    4.3014   -1.3932    0.0000 C   0  0  0  0  0  0  0  0  0  0  0  0
    4.3125   -2.2115    0.0000 C   0  0  0  0  0  0  0  0  0  0  0  0
    5.7390   -2.2226    0.0000 C   0  0  0  0  0  0  0  0  0  0  0  0
    6.4356   -2.6372    0.0000 C   0  0  0  0  0  0  0  0  0  0  0  0
    7.8952   -2.6483    0.0000 C   0  0  0  0  0  0  0  0  0  0  0  0
    2.8584   -2.2115    0.0000 C   0  0  0  0  0  0  0  0  0  0  0  0
    2.1397   -2.6372    0.0000 C   0  0  0  0  0  0  0  0  0  0  0  0
    1.4264   -2.2226    0.0000 C   0  0  0  0  0  0  0  0  0  0  0  0
    0.6966   -2.6372    0.0000 C   0  0  0  0  0  0  0  0  0  0  0  0
    9.3382   -3.4555    0.0000 C   0  0  0  0  0  0  0  0  0  0  0  0
    9.3382   -2.6538    0.0000 C   0  0  0  0  0  0  0  0  0  0  0  0
    8.6415   -2.2392    0.0000 C   0  0  0  0  0  0  0  0  0  0  0  0
    7.8952   -3.4666    0.0000 C   0  0  0  0  0  0  0  0  0  0  0  0
    3.5827   -3.4666    0.0000 C   0  0  0  0  0  0  0  0  0  0  0  0
    4.3014   -3.8813    0.0000 C   0  0  0  0  0  0  0  0  0  0  0  0
    4.9925   -3.4832    0.0000 C   0  0  0  0  0  0  0  0  0  0  0  0
    4.3125   -4.7106    0.0000 C   0  0  0  0  0  0  0  0  0  0  0  0
    5.0257   -5.1253    0.0000 C   0  0  0  0  0  0  0  0  0  0  0  0
    5.7390   -4.6940    0.0000 C   0  0  0  0  0  0  0  0  0  0  0  0
    5.7390   -3.8979    0.0000 C   0  0  0  0  0  0  0  0  0  0  0  0
    4.5945   -0.2571    0.0000 O   0  0  0  0  0  0  0  0  0  0  0  0
    5.4238   -0.2571    0.0000 O   0  0  0  0  0  0  0  0  0  0  0  0
    3.5910   -2.6456    0.0000 N   0  0  0  0  0  0  0  0  0  0  0  0
    2.8777   -1.4016    0.0000 N   0  0  0  0  0  0  0  0  0  0  0  0
    8.6167   -3.8895    0.0000 N   0  0  0  0  0  0  0  0  0  0  0  0
    5.0257   -0.9869    0.0000 S   0  0  0  0  0  0  0  0  0  0  0  0
  1  5  2  0  0  0  0
  6  7  1  0  0  0  0
  7  8  2  0  0  0  0
  8  9  1  0  0  0  0
  5 10  1  0  0  0  0
 10 11  2  0  0  0  0
  3 11  1  0  0  0  0
  9 12  2  0  0  0  0
 12 13  1  0  0  0  0
  6 13  2  0  0  0  0
  6 14  1  0  0  0  0
 15 16  1  0  0  0  0
 16 17  1  0  0  0  0
 17 18  1  0  0  0  0
  2 18  1  0  0  0  0
  4 19  1  0  0  0  0
 19 20  1  0  0  0  0
 20 21  2  0  0  0  0
 14 21  1  0  0  0  0
 14 22  2  0  0  0  0
 23 24  1  0  0  0  0
 24 25  1  0  0  0  0
 24 26  2  0  0  0  0
 26 27  1  0  0  0  0
 27 28  2  0  0  0  0
 28 29  1  0  0  0  0
 25 29  2  0  0  0  0
 11 32  1  0  0  0  0
 15 32  1  0  0  0  0
 23 32  1  0  0  0  0
  5 33  1  0  0  0  0
 15 33  2  0  0  0  0
 19 34  2  0  0  0  0
 22 34  1  0  0  0  0
  9 35  1  0  0  0  0
 10 35  1  0  0  0  0
 30 35  2  0  0  0  0
 31 35  2  0  0  0  0
M  END
> <ID>
SCHEMBL21135226

> <InChIKey>
YWWKEDWQIREWAD-UHFFFAOYSA-N

> <MW>
493.55

> <Series_Name>
Series_13

$$$$
SCHEMBL21135231
  Mrv1719007161922462D 0   0.00000     0.00000     0

 39 42  0  0  0  0              1 V2000 
    3.5470   -0.1567    0.0000 O   0  0  0  0  0  0  0  0  0  0  0  0
    8.5624   -1.4023    0.0000 C   0  0  0  0  0  0  0  0  0  0  0  0
    5.1638   -2.6314    0.0000 O   0  0  0  0  0  0  0  0  0  0  0  0
    6.4259   -3.4563    0.0000 F   0  0  0  0  0  0  0  0  0  0  0  0
    0.0165   -2.2272    0.0000 C   0  0  0  0  0  0  0  0  0  0  0  0
    9.9894   -3.8687    0.0000 F   0  0  0  0  0  0  0  0  0  0  0  0
    3.6021   -0.9899    0.0000 C   0  0  0  0  0  0  0  0  0  0  0  0
    7.1325   -2.1997    0.0000 C   0  0  0  0  0  0  0  0  0  0  0  0
    7.1435   -1.4023    0.0000 C   0  0  0  0  0  0  0  0  0  0  0  0
    6.4837   -1.0064    0.0000 C   0  0  0  0  0  0  0  0  0  0  0  0
    5.7083   -1.3968    0.0000 C   0  0  0  0  0  0  0  0  0  0  0  0
    4.2784   -1.3858    0.0000 C   0  0  0  0  0  0  0  0  0  0  0  0
    4.2894   -2.1997    0.0000 C   0  0  0  0  0  0  0  0  0  0  0  0
    8.5624   -2.1997    0.0000 C   0  0  0  0  0  0  0  0  0  0  0  0
    5.7083   -2.2107    0.0000 C   0  0  0  0  0  0  0  0  0  0  0  0
    6.4232   -2.6231    0.0000 C   0  0  0  0  0  0  0  0  0  0  0  0
    2.8431   -2.1997    0.0000 C   0  0  0  0  0  0  0  0  0  0  0  0
    2.1282   -2.6231    0.0000 C   0  0  0  0  0  0  0  0  0  0  0  0
    7.8530   -2.6341    0.0000 C   0  0  0  0  0  0  0  0  0  0  0  0
    0.6929   -2.6231    0.0000 C   0  0  0  0  0  0  0  0  0  0  0  0
    7.8530   -3.4481    0.0000 C   0  0  0  0  0  0  0  0  0  0  0  0
    8.5459   -3.8605    0.0000 C   0  0  0  0  0  0  0  0  0  0  0  0
    9.2773   -3.4371    0.0000 C   0  0  0  0  0  0  0  0  0  0  0  0
    3.5635   -3.4481    0.0000 C   0  0  0  0  0  0  0  0  0  0  0  0
    4.2784   -3.8605    0.0000 C   0  0  0  0  0  0  0  0  0  0  0  0
    4.9878   -5.0923    0.0000 C   0  0  0  0  0  0  0  0  0  0  0  0
    5.7083   -4.6689    0.0000 C   0  0  0  0  0  0  0  0  0  0  0  0
    5.7083   -3.8770    0.0000 C   0  0  0  0  0  0  0  0  0  0  0  0
    5.0153   -3.4645    0.0000 C   0  0  0  0  0  0  0  0  0  0  0  0
    4.2894   -4.6854    0.0000 C   0  0  0  0  0  0  0  0  0  0  0  0
    4.9988   -5.9392    0.0000 C   0  0  0  0  0  0  0  0  0  0  0  0
    4.5699   -0.2557    0.0000 O   0  0  0  0  0  0  0  0  0  0  0  0
    5.3948   -0.2557    0.0000 O   0  0  0  0  0  0  0  0  0  0  0  0
    5.0071   -6.7559    0.0000 N   0  0  0  0  0  0  0  0  0  0  0  0
    3.5718   -2.6314    0.0000 N   0  0  0  0  0  0  0  0  0  0  0  0
    9.2965   -2.6314    0.0000 N   0  0  0  0  0  0  0  0  0  0  0  0
    1.4188   -2.2190    0.0000 O   0  0  0  0  0  0  0  0  0  0  0  0
    2.8624   -1.3941    0.0000 N   0  0  0  0  0  0  0  0  0  0  0  0
    4.9988   -0.9816    0.0000 S   0  0  0  0  0  0  0  0  0  0  0  0
  1  7  2  0  0  0  0
  8  9  1  0  0  0  0
  9 10  2  0  0  0  0
 10 11  1  0  0  0  0
  7 12  1  0  0  0  0
 12 13  2  0  0  0  0
  3 13  1  0  0  0  0
  2 14  1  0  0  0  0
 11 15  2  0  0  0  0
 15 16  1  0  0  0  0
  8 16  2  0  0  0  0
  4 16  1  0  0  0  0
 17 18  1  0  0  0  0
  8 19  1  0  0  0  0
 14 19  1  0  0  0  0
  5 20  1  0  0  0  0
 19 21  2  0  0  0  0
 21 22  1  0  0  0  0
 22 23  2  0  0  0  0
  6 23  1  0  0  0  0
 24 25  1  0  0  0  0
 26 27  2  0  0  0  0
 27 28  1  0  0  0  0
 28 29  2  0  0  0  0
 25 29  1  0  0  0  0
 25 30  2  0  0  0  0
 26 30  1  0  0  0  0
 31 26  1  0  0  0  0
 31 34  3  0  0  0  0
 13 35  1  0  0  0  0
 17 35  1  0  0  0  0
 24 35  1  0  0  0  0
 14 36  2  0  0  0  0
 23 36  1  0  0  0  0
 18 37  1  0  0  0  0
 20 37  1  0  0  0  0
  7 38  1  0  0  0  0
 17 38  2  0  0  0  0
 11 39  1  0  0  0  0
 12 39  1  0  0  0  0
 32 39  2  0  0  0  0
 33 39  2  0  0  0  0
M  END
> <ID>
SCHEMBL21135231

> <InChIKey>
SKEXNRBTPJXSFH-UHFFFAOYSA-N

> <MW>
552.55

> <Series_Name>
Series_13

$$$$
SCHEMBL21135235
  Mrv1719007161922472D 0   0.00000     0.00000     0

 29 31  0  0  0  0              1 V2000 
    3.5660   -0.1575    0.0000 O   0  0  0  0  0  0  0  0  0  0  0  0
    8.6081   -1.4264    0.0000 C   0  0  0  0  0  0  0  0  0  0  0  0
    0.0000   -2.2391    0.0000 C   0  0  0  0  0  0  0  0  0  0  0  0
    5.1914   -2.6455    0.0000 O   0  0  0  0  0  0  0  0  0  0  0  0
   10.0428   -3.8894    0.0000 F   0  0  0  0  0  0  0  0  0  0  0  0
    3.6213   -0.9952    0.0000 C   0  0  0  0  0  0  0  0  0  0  0  0
    7.1706   -2.2280    0.0000 C   0  0  0  0  0  0  0  0  0  0  0  0
    7.1817   -1.4098    0.0000 C   0  0  0  0  0  0  0  0  0  0  0  0
    6.5017   -1.0117    0.0000 C   0  0  0  0  0  0  0  0  0  0  0  0
    5.7387   -1.4043    0.0000 C   0  0  0  0  0  0  0  0  0  0  0  0
    4.3013   -1.4043    0.0000 C   0  0  0  0  0  0  0  0  0  0  0  0
    4.3013   -2.2280    0.0000 C   0  0  0  0  0  0  0  0  0  0  0  0
    5.7387   -2.2225    0.0000 C   0  0  0  0  0  0  0  0  0  0  0  0
    6.4519   -2.6538    0.0000 C   0  0  0  0  0  0  0  0  0  0  0  0
    7.8949   -2.6482    0.0000 C   0  0  0  0  0  0  0  0  0  0  0  0
    8.6081   -2.2280    0.0000 C   0  0  0  0  0  0  0  0  0  0  0  0
    2.8694   -2.2280    0.0000 C   0  0  0  0  0  0  0  0  0  0  0  0
    2.1396   -2.6538    0.0000 C   0  0  0  0  0  0  0  0  0  0  0  0
    1.4429   -2.2391    0.0000 C   0  0  0  0  0  0  0  0  0  0  0  0
    0.7132   -2.6538    0.0000 C   0  0  0  0  0  0  0  0  0  0  0  0
    9.3379   -2.6538    0.0000 C   0  0  0  0  0  0  0  0  0  0  0  0
    9.3268   -3.4720    0.0000 C   0  0  0  0  0  0  0  0  0  0  0  0
    7.8949   -3.4665    0.0000 C   0  0  0  0  0  0  0  0  0  0  0  0
    5.4236   -0.2737    0.0000 O   0  0  0  0  0  0  0  0  0  0  0  0
    4.5943   -0.2737    0.0000 O   0  0  0  0  0  0  0  0  0  0  0  0
    3.5909   -2.6455    0.0000 N   0  0  0  0  0  0  0  0  0  0  0  0
    2.8776   -1.4015    0.0000 N   0  0  0  0  0  0  0  0  0  0  0  0
    8.6164   -3.8894    0.0000 N   0  0  0  0  0  0  0  0  0  0  0  0
    5.0255   -0.9868    0.0000 S   0  0  0  0  0  0  0  0  0  0  0  0
  1  6  2  0  0  0  0
  7  8  1  0  0  0  0
  8  9  2  0  0  0  0
  9 10  1  0  0  0  0
  6 11  1  0  0  0  0
 11 12  2  0  0  0  0
  4 12  1  0  0  0  0
 10 13  2  0  0  0  0
 13 14  1  0  0  0  0
  7 14  2  0  0  0  0
  7 15  1  0  0  0  0
  2 16  1  0  0  0  0
 15 16  1  0  0  0  0
 17 18  1  0  0  0  0
 18 19  1  0  0  0  0
 19 20  1  0  0  0  0
  3 20  1  0  0  0  0
 16 21  2  0  0  0  0
 21 22  1  0  0  0  0
  5 22  1  0  0  0  0
 15 23  2  0  0  0  0
 12 26  1  0  0  0  0
 17 26  1  0  0  0  0
  6 27  1  0  0  0  0
 17 27  2  0  0  0  0
 22 28  2  0  0  0  0
 23 28  1  0  0  0  0
 10 29  1  0  0  0  0
 11 29  1  0  0  0  0
 24 29  2  0  0  0  0
 25 29  2  0  0  0  0
M  END
> <ID>
SCHEMBL21135235

> <InChIKey>
UDKGVDCZPOYWJQ-UHFFFAOYSA-N

> <MW>
417.46

> <Series_Name>
Series_13

$$$$
SCHEMBL21135236
  Mrv1719007161922482D 0   0.00000     0.00000     0

 30 32  0  0  0  0              1 V2000 
    3.5903   -0.1655    0.0000 O   0  0  0  0  0  0  0  0  0  0  0  0
    0.0174   -2.2658    0.0000 C   0  0  0  0  0  0  0  0  0  0  0  0
    5.2286   -2.6753    0.0000 O   0  0  0  0  0  0  0  0  0  0  0  0
    7.2503   -3.9041    0.0000 C   0  0  0  0  0  0  0  0  0  0  0  0
   10.8058   -3.5206    0.0000 C   0  0  0  0  0  0  0  0  0  0  0  0
    3.6484   -1.0109    0.0000 C   0  0  0  0  0  0  0  0  0  0  0  0
    7.2329   -2.2368    0.0000 C   0  0  0  0  0  0  0  0  0  0  0  0
    7.2329   -1.4292    0.0000 C   0  0  0  0  0  0  0  0  0  0  0  0
    6.5532   -1.0283    0.0000 C   0  0  0  0  0  0  0  0  0  0  0  0
    5.7863   -1.4233    0.0000 C   0  0  0  0  0  0  0  0  0  0  0  0
    4.3398   -1.4233    0.0000 C   0  0  0  0  0  0  0  0  0  0  0  0
    4.3398   -2.2368    0.0000 C   0  0  0  0  0  0  0  0  0  0  0  0
    5.7863   -2.2483    0.0000 C   0  0  0  0  0  0  0  0  0  0  0  0
    6.4137   -2.6317    0.0000 C   0  0  0  0  0  0  0  0  0  0  0  0
    7.9475   -2.6782    0.0000 C   0  0  0  0  0  0  0  0  0  0  0  0
    2.8815   -2.2368    0.0000 C   0  0  0  0  0  0  0  0  0  0  0  0
    2.1437   -2.6665    0.0000 C   0  0  0  0  0  0  0  0  0  0  0  0
    1.4118   -2.2658    0.0000 C   0  0  0  0  0  0  0  0  0  0  0  0
    0.6971   -2.6665    0.0000 C   0  0  0  0  0  0  0  0  0  0  0  0
    9.3941   -3.5089    0.0000 C   0  0  0  0  0  0  0  0  0  0  0  0
    9.3941   -2.6839    0.0000 C   0  0  0  0  0  0  0  0  0  0  0  0
    8.6446   -2.2658    0.0000 C   0  0  0  0  0  0  0  0  0  0  0  0
    7.9475   -3.5089    0.0000 C   0  0  0  0  0  0  0  0  0  0  0  0
    4.6186   -0.2876    0.0000 O   0  0  0  0  0  0  0  0  0  0  0  0
    5.4552   -0.2876    0.0000 O   0  0  0  0  0  0  0  0  0  0  0  0
    3.6165   -2.6753    0.0000 N   0  0  0  0  0  0  0  0  0  0  0  0
    2.9018   -1.4204    0.0000 N   0  0  0  0  0  0  0  0  0  0  0  0
    8.6882   -3.9302    0.0000 N   0  0  0  0  0  0  0  0  0  0  0  0
   10.1086   -3.9302    0.0000 O   0  0  0  0  0  0  0  0  0  0  0  0
    5.0543   -1.0021    0.0000 S   0  0  0  0  0  0  0  0  0  0  0  0
  1  6  2  0  0  0  0
  7  8  1  0  0  0  0
  8  9  2  0  0  0  0
  9 10  1  0  0  0  0
  6 11  1  0  0  0  0
 11 12  2  0  0  0  0
  3 12  1  0  0  0  0
 10 13  2  0  0  0  0
 13 14  1  0  0  0  0
  7 14  2  0  0  0  0
  7 15  1  0  0  0  0
 16 17  1  0  0  0  0
 17 18  1  0  0  0  0
 18 19  1  0  0  0  0
  2 19  1  0  0  0  0
 20 21  1  0  0  0  0
 21 22  2  0  0  0  0
 15 22  1  0  0  0  0
 15 23  2  0  0  0  0
  4 23  1  0  0  0  0
 12 26  1  0  0  0  0
 16 26  1  0  0  0  0
  6 27  1  0  0  0  0
 16 27  2  0  0  0  0
 20 28  2  0  0  0  0
 23 28  1  0  0  0  0
  5 29  1  0  0  0  0
 20 29  1  0  0  0  0
 10 30  1  0  0  0  0
 11 30  1  0  0  0  0
 24 30  2  0  0  0  0
 25 30  2  0  0  0  0
M  END
> <ID>
SCHEMBL21135236

> <InChIKey>
SQEHYPXOURBPCQ-UHFFFAOYSA-N

> <MW>
429.49

> <Series_Name>
Series_13

$$$$
SCHEMBL21135237
  Mrv1719007161922492D 0   0.00000     0.00000     0

 37 40  0  0  0  0              1 V2000 
    3.5747   -0.1580    0.0000 O   0  0  0  0  0  0  0  0  0  0  0  0
    5.2042   -2.6519    0.0000 O   0  0  0  0  0  0  0  0  0  0  0  0
    0.0166   -2.2446    0.0000 C   0  0  0  0  0  0  0  0  0  0  0  0
    0.7149   -3.4418    0.0000 C   0  0  0  0  0  0  0  0  0  0  0  0
    7.2160   -3.8740    0.0000 C   0  0  0  0  0  0  0  0  0  0  0  0
   10.0675   -3.8989    0.0000 F   0  0  0  0  0  0  0  0  0  0  0  0
    3.6301   -0.9976    0.0000 C   0  0  0  0  0  0  0  0  0  0  0  0
    7.1882   -2.2169    0.0000 C   0  0  0  0  0  0  0  0  0  0  0  0
    7.1994   -1.4132    0.0000 C   0  0  0  0  0  0  0  0  0  0  0  0
    6.5343   -1.0142    0.0000 C   0  0  0  0  0  0  0  0  0  0  0  0
    5.7528   -1.4077    0.0000 C   0  0  0  0  0  0  0  0  0  0  0  0
    4.3119   -1.3966    0.0000 C   0  0  0  0  0  0  0  0  0  0  0  0
    4.3229   -2.2169    0.0000 C   0  0  0  0  0  0  0  0  0  0  0  0
    5.7528   -2.2279    0.0000 C   0  0  0  0  0  0  0  0  0  0  0  0
    6.4512   -2.6437    0.0000 C   0  0  0  0  0  0  0  0  0  0  0  0
    7.9143   -2.6547    0.0000 C   0  0  0  0  0  0  0  0  0  0  0  0
    2.8653   -2.2169    0.0000 C   0  0  0  0  0  0  0  0  0  0  0  0
    2.1448   -2.6437    0.0000 C   0  0  0  0  0  0  0  0  0  0  0  0
    1.4299   -2.2279    0.0000 C   0  0  0  0  0  0  0  0  0  0  0  0
    0.7149   -2.6547    0.0000 C   0  0  0  0  0  0  0  0  0  0  0  0
    9.3608   -3.4639    0.0000 C   0  0  0  0  0  0  0  0  0  0  0  0
    9.3608   -2.6603    0.0000 C   0  0  0  0  0  0  0  0  0  0  0  0
    8.6625   -2.2446    0.0000 C   0  0  0  0  0  0  0  0  0  0  0  0
    7.9031   -3.4639    0.0000 C   0  0  0  0  0  0  0  0  0  0  0  0
    3.5914   -3.4749    0.0000 C   0  0  0  0  0  0  0  0  0  0  0  0
    4.3119   -3.8907    0.0000 C   0  0  0  0  0  0  0  0  0  0  0  0
    5.0046   -3.4916    0.0000 C   0  0  0  0  0  0  0  0  0  0  0  0
    4.3229   -4.7220    0.0000 C   0  0  0  0  0  0  0  0  0  0  0  0
    5.0379   -5.1377    0.0000 C   0  0  0  0  0  0  0  0  0  0  0  0
    5.7528   -4.7054    0.0000 C   0  0  0  0  0  0  0  0  0  0  0  0
    5.7528   -3.9072    0.0000 C   0  0  0  0  0  0  0  0  0  0  0  0
    4.6056   -0.2743    0.0000 O   0  0  0  0  0  0  0  0  0  0  0  0
    5.4370   -0.2743    0.0000 O   0  0  0  0  0  0  0  0  0  0  0  0
    3.5997   -2.6519    0.0000 N   0  0  0  0  0  0  0  0  0  0  0  0
    8.6375   -3.8989    0.0000 N   0  0  0  0  0  0  0  0  0  0  0  0
    2.8847   -1.4050    0.0000 N   0  0  0  0  0  0  0  0  0  0  0  0
    5.0379   -0.9892    0.0000 S   0  0  0  0  0  0  0  0  0  0  0  0
  1  7  2  0  0  0  0
  8  9  1  0  0  0  0
  9 10  2  0  0  0  0
 10 11  1  0  0  0  0
  7 12  1  0  0  0  0
 12 13  2  0  0  0  0
  2 13  1  0  0  0  0
 11 14  2  0  0  0  0
 14 15  1  0  0  0  0
  8 15  2  0  0  0  0
  8 16  1  0  0  0  0
 17 18  1  0  0  0  0
 18 19  1  0  0  0  0
 19 20  1  0  0  0  0
  3 20  1  0  0  0  0
  4 20  1  0  0  0  0
  6 21  1  0  0  0  0
 21 22  1  0  0  0  0
 22 23  2  0  0  0  0
 16 23  1  0  0  0  0
 16 24  2  0  0  0  0
  5 24  1  0  0  0  0
 25 26  1  0  0  0  0
 26 27  1  0  0  0  0
 26 28  2  0  0  0  0
 28 29  1  0  0  0  0
 29 30  2  0  0  0  0
 30 31  1  0  0  0  0
 27 31  2  0  0  0  0
 13 34  1  0  0  0  0
 17 34  1  0  0  0  0
 25 34  1  0  0  0  0
 21 35  2  0  0  0  0
 24 35  1  0  0  0  0
  7 36  1  0  0  0  0
 17 36  2  0  0  0  0
 11 37  1  0  0  0  0
 12 37  1  0  0  0  0
 32 37  2  0  0  0  0
 33 37  2  0  0  0  0
M  END
> <ID>
SCHEMBL21135237

> <InChIKey>
HOAUHDBDJXLEBG-UHFFFAOYSA-N

> <MW>
521.61

> <Series_Name>
Series_13

$$$$
SCHEMBL21135238
  Mrv1719007161922492D 0   0.00000     0.00000     0

 38 41  0  0  1  0              1 V2000 
    4.3737   -3.5524    0.0000 C   0  0  1  0  0  0  0  0  0  0  0  0
    5.1011   -3.9632    0.0000 C   0  0  0  0  0  0  0  0  0  0  0  0
    6.5268   -4.7695    0.0000 C   0  0  0  0  0  0  0  0  0  0  0  0
    6.5202   -3.9749    0.0000 C   0  0  0  0  0  0  0  0  0  0  0  0
    5.8020   -3.5615    0.0000 C   0  0  0  0  0  0  0  0  0  0  0  0
    5.1043   -4.7926    0.0000 C   0  0  0  0  0  0  0  0  0  0  0  0
    5.8057   -5.1904    0.0000 C   0  0  0  0  0  0  0  0  0  0  0  0
    8.6573   -3.5541    0.0000 C   0  0  0  0  0  0  0  0  0  0  0  0
    8.6590   -2.7263    0.0000 C   0  0  0  0  0  0  0  0  0  0  0  0
    7.9552   -2.3147    0.0000 C   0  0  0  0  0  0  0  0  0  0  0  0
    7.2366   -2.7151    0.0000 C   0  0  0  0  0  0  0  0  0  0  0  0
    6.5290   -2.3229    0.0000 C   0  0  0  0  0  0  0  0  0  0  0  0
    5.7792   -1.0568    0.0000 S   0  0  0  0  0  0  0  0  0  0  0  0
    6.5373   -1.4843    0.0000 C   0  0  0  0  0  0  0  0  0  0  0  0
    7.2289   -1.0839    0.0000 C   0  0  0  0  0  0  0  0  0  0  0  0
    7.9485   -1.4847    0.0000 C   0  0  0  0  0  0  0  0  0  0  0  0
   10.0919   -2.7274    0.0000 C   0  0  0  0  0  0  0  0  0  0  0  0
   10.0950   -3.5535    0.0000 C   0  0  0  0  0  0  0  0  0  0  0  0
    9.3788   -3.9464    0.0000 N   0  0  0  0  0  0  0  0  0  0  0  0
    9.3770   -2.3155    0.0000 C   0  0  0  0  0  0  0  0  0  0  0  0
    7.9423   -3.9628    0.0000 C   0  0  0  0  0  0  0  0  0  0  0  0
    0.0845   -2.7154    0.0000 C   0  0  0  0  0  0  0  0  0  0  0  0
    0.7930   -2.3143    0.0000 C   0  0  0  0  0  0  0  0  0  0  0  0
    1.5114   -2.7226    0.0000 C   0  0  0  0  0  0  0  0  0  0  0  0
    2.2306   -2.3205    0.0000 C   0  0  0  0  0  0  0  0  0  0  0  0
    3.6492   -1.4696    0.0000 N   0  0  0  0  0  0  0  0  0  0  0  0
    3.6572   -2.3139    0.0000 C   0  0  0  0  0  0  0  0  0  0  0  0
    4.3591   -2.7080    0.0000 N   0  0  0  0  0  0  0  0  0  0  0  0
    2.9399   -2.7214    0.0000 C   0  0  0  0  0  0  0  0  0  0  0  0
    5.0882   -2.3165    0.0000 C   0  0  0  0  0  0  0  0  0  0  0  0
    5.0961   -1.4845    0.0000 C   0  0  0  0  0  0  0  0  0  0  0  0
    4.4438   -1.1058    0.0000 C   0  0  0  0  0  0  0  0  0  0  0  0
    4.3591   -0.2312    0.0000 O   0  0  0  0  0  0  0  0  0  0  0  0
    5.9443   -2.7080    0.0000 O   0  0  0  0  0  0  0  0  0  0  0  0
    6.1920   -0.3467    0.0000 O   0  0  0  0  0  0  0  0  0  0  0  0
    2.9226   -3.5336    0.0000 O   0  0  0  0  0  0  0  0  0  0  0  0
    3.6376   -3.9466    0.0000 C   0  0  0  0  0  0  0  0  0  0  0  0
    5.3664   -0.3467    0.0000 O   0  0  0  0  0  0  0  0  0  0  0  0
  1  2  1  0  0  0  0
  1 37  1  6  0  0  0
  1 28  1  0  0  0  0
  2  6  2  0  0  0  0
  3  4  1  0  0  0  0
  5  4  2  0  0  0  0
  5  2  1  0  0  0  0
  6  7  1  0  0  0  0
  7  3  2  0  0  0  0
  8  9  2  0  0  0  0
  8 19  1  0  0  0  0
  9 20  1  0  0  0  0
 10  9  1  0  0  0  0
 11 10  2  0  0  0  0
 11 12  1  0  0  0  0
 12 14  2  0  0  0  0
 13 14  1  0  0  0  0
 13 31  1  0  0  0  0
 13 35  2  0  0  0  0
 14 15  1  0  0  0  0
 15 16  2  0  0  0  0
 16 10  1  0  0  0  0
 17 18  1  0  0  0  0
 19 18  2  0  0  0  0
 20 17  2  0  0  0  0
 21  8  1  0  0  0  0
 22 23  1  0  0  0  0
 23 24  1  0  0  0  0
 24 25  1  0  0  0  0
 26 27  2  0  0  0  0
 27 28  1  0  0  0  0
 27 29  1  0  0  0  0
 28 30  1  0  0  0  0
 29 25  1  0  0  0  0
 30 31  2  0  0  0  0
 31 32  1  0  0  0  0
 32 26  1  0  0  0  0
 33 32  2  0  0  0  0
 34 30  1  0  0  0  0
 36 37  1  0  0  0  0
 38 13  2  0  0  0  0
M  END
> <ID>
SCHEMBL21135238

> <InChIKey>
YNLIYHQGZSFFTD-VWLOTQADSA-N

> <MW>
533.64

> <Series_Name>
Series_13

$$$$
SCHEMBL21135242
  Mrv1719007161922502D 0   0.00000     0.00000     0

 38 41  0  0  0  0              1 V2000 
    2.8946   -3.8453    0.0000 C   0  0  0  0  0  0  0  0  0  0  0  0
    3.5899   -0.1348    0.0000 O   0  0  0  0  0  0  0  0  0  0  0  0
    0.0284   -2.2135    0.0000 C   0  0  0  0  0  0  0  0  0  0  0  0
    5.1791   -2.6179    0.0000 O   0  0  0  0  0  0  0  0  0  0  0  0
    7.1940   -3.8453    0.0000 C   0  0  0  0  0  0  0  0  0  0  0  0
    7.1514   -4.6967    0.0000 C   0  0  0  0  0  0  0  0  0  0  0  0
    3.5899   -3.4385    0.0000 C   0  0  1  0  0  0  0  0  0  0  0  0
    3.6372   -0.9791    0.0000 C   0  0  0  0  0  0  0  0  0  0  0  0
    7.1798   -2.1899    0.0000 C   0  0  0  0  0  0  0  0  0  0  0  0
    7.1798   -1.3906    0.0000 C   0  0  0  0  0  0  0  0  0  0  0  0
    6.4562   -0.9649    0.0000 C   0  0  0  0  0  0  0  0  0  0  0  0
    5.7372   -1.3717    0.0000 C   0  0  0  0  0  0  0  0  0  0  0  0
    5.8177   -2.2561    0.0000 C   0  0  0  0  0  0  0  0  0  0  0  0
    6.4703   -2.6108    0.0000 C   0  0  0  0  0  0  0  0  0  0  0  0
    7.8940   -2.6108    0.0000 C   0  0  0  0  0  0  0  0  0  0  0  0
    4.3041   -1.3717    0.0000 C   0  0  0  0  0  0  0  0  0  0  0  0
    4.3136   -2.1899    0.0000 C   0  0  0  0  0  0  0  0  0  0  0  0
    2.8710   -2.1899    0.0000 C   0  0  0  0  0  0  0  0  0  0  0  0
    2.1568   -2.6251    0.0000 C   0  0  0  0  0  0  0  0  0  0  0  0
    1.4190   -2.2135    0.0000 C   0  0  0  0  0  0  0  0  0  0  0  0
    0.7237   -2.6251    0.0000 C   0  0  0  0  0  0  0  0  0  0  0  0
    9.3366   -3.4339    0.0000 C   0  0  0  0  0  0  0  0  0  0  0  0
    9.3366   -2.6251    0.0000 C   0  0  0  0  0  0  0  0  0  0  0  0
    8.6271   -2.2135    0.0000 C   0  0  0  0  0  0  0  0  0  0  0  0
    7.8940   -3.4385    0.0000 C   0  0  0  0  0  0  0  0  0  0  0  0
    4.3041   -3.8548    0.0000 C   0  0  0  0  0  0  0  0  0  0  0  0
    5.7372   -4.6730    0.0000 C   0  0  0  0  0  0  0  0  0  0  0  0
    5.7467   -3.8737    0.0000 C   0  0  0  0  0  0  0  0  0  0  0  0
    5.0088   -3.4480    0.0000 C   0  0  0  0  0  0  0  0  0  0  0  0
    4.3845   -4.7392    0.0000 C   0  0  0  0  0  0  0  0  0  0  0  0
    5.0230   -5.1082    0.0000 C   0  0  0  0  0  0  0  0  0  0  0  0
    5.4345   -0.2483    0.0000 O   0  0  0  0  0  0  0  0  0  0  0  0
    4.5973   -0.2483    0.0000 O   0  0  0  0  0  0  0  0  0  0  0  0
    6.4562   -5.1010    0.0000 O   0  0  0  0  0  0  0  0  0  0  0  0
    8.6200   -3.8524    0.0000 N   0  0  0  0  0  0  0  0  0  0  0  0
    3.5970   -2.6179    0.0000 N   0  0  0  0  0  0  0  0  0  0  0  0
    2.8875   -1.3693    0.0000 N   0  0  0  0  0  0  0  0  0  0  0  0
    5.0230   -0.9578    0.0000 S   0  0  0  0  0  0  0  0  0  0  0  0
  2  8  2  0  0  0  0
  9 10  1  0  0  0  0
 10 11  2  0  0  0  0
 11 12  1  0  0  0  0
 12 13  2  0  0  0  0
 13 14  1  0  0  0  0
  9 14  2  0  0  0  0
  9 15  1  0  0  0  0
  8 16  1  0  0  0  0
 16 17  2  0  0  0  0
  4 17  1  0  0  0  0
 18 19  1  0  0  0  0
 19 20  1  0  0  0  0
 20 21  1  0  0  0  0
  3 21  1  0  0  0  0
 22 23  1  0  0  0  0
 23 24  2  0  0  0  0
 15 24  1  0  0  0  0
 15 25  2  0  0  0  0
  5 25  1  0  0  0  0
  7 26  1  0  0  0  0
 27 28  1  0  0  0  0
 28 29  2  0  0  0  0
 26 29  1  0  0  0  0
 26 30  2  0  0  0  0
 30 31  1  0  0  0  0
 27 31  2  0  0  0  0
  6 34  1  0  0  0  0
 27 34  1  0  0  0  0
 22 35  2  0  0  0  0
 25 35  1  0  0  0  0
  7 36  1  0  0  0  0
 17 36  1  0  0  0  0
 18 36  1  0  0  0  0
  8 37  1  0  0  0  0
 18 37  2  0  0  0  0
 12 38  1  0  0  0  0
 16 38  1  0  0  0  0
 32 38  2  0  0  0  0
 33 38  2  0  0  0  0
  7  1  1  6  0  0  0
M  END
> <ID>
SCHEMBL21135242

> <InChIKey>
BFXDLPGOADRSRT-FQEVSTJZSA-N

> <MW>
533.64

> <Series_Name>
Series_13

$$$$
SCHEMBL21135243
  Mrv1719007161922502D 0   0.00000     0.00000     0

 29 31  0  0  0  0              1 V2000 
    3.5687   -0.1345    0.0000 O   0  0  0  0  0  0  0  0  0  0  0  0
    8.5819   -1.4020    0.0000 C   0  0  0  0  0  0  0  0  0  0  0  0
    0.0000   -2.2092    0.0000 C   0  0  0  0  0  0  0  0  0  0  0  0
    5.1548   -2.6128    0.0000 O   0  0  0  0  0  0  0  0  0  0  0  0
    0.7080   -3.4130    0.0000 C   0  0  0  0  0  0  0  0  0  0  0  0
    3.6160   -0.9771    0.0000 C   0  0  0  0  0  0  0  0  0  0  0  0
    7.1516   -2.1997    0.0000 C   0  0  0  0  0  0  0  0  0  0  0  0
    7.1516   -1.3878    0.0000 C   0  0  0  0  0  0  0  0  0  0  0  0
    6.4860   -0.9913    0.0000 C   0  0  0  0  0  0  0  0  0  0  0  0
    5.7213   -1.3831    0.0000 C   0  0  0  0  0  0  0  0  0  0  0  0
    4.2909   -1.3831    0.0000 C   0  0  0  0  0  0  0  0  0  0  0  0
    4.2909   -2.1997    0.0000 C   0  0  0  0  0  0  0  0  0  0  0  0
    5.7213   -2.2092    0.0000 C   0  0  0  0  0  0  0  0  0  0  0  0
    6.4011   -2.6057    0.0000 C   0  0  0  0  0  0  0  0  0  0  0  0
    8.5819   -2.1997    0.0000 C   0  0  0  0  0  0  0  0  0  0  0  0
    2.8512   -2.1997    0.0000 C   0  0  0  0  0  0  0  0  0  0  0  0
    0.7080   -2.6151    0.0000 C   0  0  0  0  0  0  0  0  0  0  0  0
    2.1384   -2.6199    0.0000 C   0  0  0  0  0  0  0  0  0  0  0  0
    7.8644   -2.6151    0.0000 C   0  0  0  0  0  0  0  0  0  0  0  0
    7.9021   -3.4696    0.0000 C   0  0  0  0  0  0  0  0  0  0  0  0
    8.5960   -3.8520    0.0000 C   0  0  0  0  0  0  0  0  0  0  0  0
    9.3042   -3.4271    0.0000 C   0  0  0  0  0  0  0  0  0  0  0  0
    4.5742   -0.2479    0.0000 O   0  0  0  0  0  0  0  0  0  0  0  0
    5.4097   -0.2479    0.0000 O   0  0  0  0  0  0  0  0  0  0  0  0
    9.2970   -2.6128    0.0000 N   0  0  0  0  0  0  0  0  0  0  0  0
    3.5758   -2.6128    0.0000 N   0  0  0  0  0  0  0  0  0  0  0  0
    1.4161   -2.2021    0.0000 O   0  0  0  0  0  0  0  0  0  0  0  0
    2.8677   -1.3807    0.0000 N   0  0  0  0  0  0  0  0  0  0  0  0
    4.9991   -0.9700    0.0000 S   0  0  0  0  0  0  0  0  0  0  0  0
  1  6  2  0  0  0  0
  7  8  1  0  0  0  0
  8  9  2  0  0  0  0
  9 10  1  0  0  0  0
  6 11  1  0  0  0  0
 11 12  2  0  0  0  0
  4 12  1  0  0  0  0
 10 13  2  0  0  0  0
 13 14  1  0  0  0  0
  7 14  2  0  0  0  0
  2 15  1  0  0  0  0
  3 17  1  0  0  0  0
  5 17  1  0  0  0  0
 16 18  1  0  0  0  0
  7 19  1  0  0  0  0
 15 19  1  0  0  0  0
 19 20  2  0  0  0  0
 20 21  1  0  0  0  0
 21 22  2  0  0  0  0
 15 25  2  0  0  0  0
 22 25  1  0  0  0  0
 12 26  1  0  0  0  0
 16 26  1  0  0  0  0
 17 27  1  0  0  0  0
 18 27  1  0  0  0  0
  6 28  1  0  0  0  0
 16 28  2  0  0  0  0
 10 29  1  0  0  0  0
 11 29  1  0  0  0  0
 23 29  2  0  0  0  0
 24 29  2  0  0  0  0
M  END
> <ID>
SCHEMBL21135243

> <InChIKey>
IKHZVMODAGSDGU-UHFFFAOYSA-N

> <MW>
415.46

> <Series_Name>
Series_13

$$$$
SCHEMBL21135358
  Mrv1719007161923552D 0   0.00000     0.00000     0

 28 30  0  0  0  0              1 V2000 
    3.5658   -0.1576    0.0000 O   0  0  0  0  0  0  0  0  0  0  0  0
    0.0000   -2.2390    0.0000 C   0  0  0  0  0  0  0  0  0  0  0  0
    5.1912   -2.6454    0.0000 O   0  0  0  0  0  0  0  0  0  0  0  0
   10.0424   -3.8892    0.0000 F   0  0  0  0  0  0  0  0  0  0  0  0
    3.6211   -0.9951    0.0000 C   0  0  0  0  0  0  0  0  0  0  0  0
    7.1704   -2.2280    0.0000 C   0  0  0  0  0  0  0  0  0  0  0  0
    7.1814   -1.4098    0.0000 C   0  0  0  0  0  0  0  0  0  0  0  0
    6.5015   -1.0117    0.0000 C   0  0  0  0  0  0  0  0  0  0  0  0
    5.7385   -1.4042    0.0000 C   0  0  0  0  0  0  0  0  0  0  0  0
    4.3012   -1.4042    0.0000 C   0  0  0  0  0  0  0  0  0  0  0  0
    4.3012   -2.2280    0.0000 C   0  0  0  0  0  0  0  0  0  0  0  0
    5.7385   -2.2225    0.0000 C   0  0  0  0  0  0  0  0  0  0  0  0
    6.4517   -2.6536    0.0000 C   0  0  0  0  0  0  0  0  0  0  0  0
    7.8946   -2.6481    0.0000 C   0  0  0  0  0  0  0  0  0  0  0  0
    2.8692   -2.2280    0.0000 C   0  0  0  0  0  0  0  0  0  0  0  0
    2.1395   -2.6536    0.0000 C   0  0  0  0  0  0  0  0  0  0  0  0
    1.4429   -2.2390    0.0000 C   0  0  0  0  0  0  0  0  0  0  0  0
    0.7132   -2.6536    0.0000 C   0  0  0  0  0  0  0  0  0  0  0  0
    9.3265   -3.4718    0.0000 C   0  0  0  0  0  0  0  0  0  0  0  0
    9.3375   -2.6536    0.0000 C   0  0  0  0  0  0  0  0  0  0  0  0
    8.6575   -2.2556    0.0000 C   0  0  0  0  0  0  0  0  0  0  0  0
    7.8946   -3.4663    0.0000 C   0  0  0  0  0  0  0  0  0  0  0  0
    5.4234   -0.2737    0.0000 O   0  0  0  0  0  0  0  0  0  0  0  0
    4.5941   -0.2737    0.0000 O   0  0  0  0  0  0  0  0  0  0  0  0
    3.5907   -2.6454    0.0000 N   0  0  0  0  0  0  0  0  0  0  0  0
    2.8776   -1.4014    0.0000 N   0  0  0  0  0  0  0  0  0  0  0  0
    8.6160   -3.8892    0.0000 N   0  0  0  0  0  0  0  0  0  0  0  0
    5.0253   -0.9868    0.0000 S   0  0  0  0  0  0  0  0  0  0  0  0
  1  5  2  0  0  0  0
  6  7  1  0  0  0  0
  7  8  2  0  0  0  0
  8  9  1  0  0  0  0
  5 10  1  0  0  0  0
 10 11  2  0  0  0  0
  3 11  1  0  0  0  0
  9 12  2  0  0  0  0
 12 13  1  0  0  0  0
  6 13  2  0  0  0  0
  6 14  1  0  0  0  0
 15 16  1  0  0  0  0
 16 17  1  0  0  0  0
 17 18  1  0  0  0  0
  2 18  1  0  0  0  0
  4 19  1  0  0  0  0
 19 20  1  0  0  0  0
 20 21  2  0  0  0  0
 14 21  1  0  0  0  0
 14 22  2  0  0  0  0
 11 25  1  0  0  0  0
 15 25  1  0  0  0  0
  5 26  1  0  0  0  0
 15 26  2  0  0  0  0
 19 27  2  0  0  0  0
 22 27  1  0  0  0  0
  9 28  1  0  0  0  0
 10 28  1  0  0  0  0
 23 28  2  0  0  0  0
 24 28  2  0  0  0  0
M  END
> <ID>
SCHEMBL21135358

> <InChIKey>
WPZCNQQJIYZBBX-UHFFFAOYSA-N

> <MW>
403.43

> <Series_Name>
Series_13

$$$$
SCHEMBL21135360
  Mrv1719007161923562D 0   0.00000     0.00000     0

 38 41  0  0  0  0              1 V2000 
    2.7669   -0.1348    0.0000 O   0  0  0  0  0  0  0  0  0  0  0  0
    1.3338   -2.5825    0.0000 C   0  0  0  0  0  0  0  0  0  0  0  0
    4.3561   -2.6179    0.0000 O   0  0  0  0  0  0  0  0  0  0  0  0
    9.2231   -2.2136    0.0000 C   0  0  0  0  0  0  0  0  0  0  0  0
    1.3622   -3.4481    0.0000 C   0  0  0  0  0  0  0  0  0  0  0  0
    2.0504   -3.8453    0.0000 C   0  0  0  0  0  0  0  0  0  0  0  0
    2.7811   -3.4386    0.0000 C   0  0  1  0  0  0  0  0  0  0  0  0
    2.7338   -0.9696    0.0000 C   0  0  0  0  0  0  0  0  0  0  0  0
    3.4953   -1.3716    0.0000 C   0  0  0  0  0  0  0  0  0  0  0  0
    6.3710   -2.1899    0.0000 C   0  0  0  0  0  0  0  0  0  0  0  0
    6.3710   -1.3906    0.0000 C   0  0  0  0  0  0  0  0  0  0  0  0
    5.6332   -0.9649    0.0000 C   0  0  0  0  0  0  0  0  0  0  0  0
    4.9285   -1.3716    0.0000 C   0  0  0  0  0  0  0  0  0  0  0  0
    4.9663   -2.2277    0.0000 C   0  0  0  0  0  0  0  0  0  0  0  0
    5.6615   -2.6108    0.0000 C   0  0  0  0  0  0  0  0  0  0  0  0
    7.0805   -2.6203    0.0000 C   0  0  0  0  0  0  0  0  0  0  0  0
    3.5048   -2.1899    0.0000 C   0  0  0  0  0  0  0  0  0  0  0  0
    2.0575   -2.1899    0.0000 C   0  0  0  0  0  0  0  0  0  0  0  0
    0.6527   -3.0933    0.0000 C   0  0  0  0  0  0  0  0  0  0  0  0
    0.0142   -2.6250    0.0000 C   0  0  0  0  0  0  0  0  0  0  0  0
    0.2696   -1.8304    0.0000 C   0  0  0  0  0  0  0  0  0  0  0  0
    1.0784   -1.8304    0.0000 C   0  0  0  0  0  0  0  0  0  0  0  0
    8.5136   -2.6203    0.0000 C   0  0  0  0  0  0  0  0  0  0  0  0
    7.7900   -2.1993    0.0000 C   0  0  0  0  0  0  0  0  0  0  0  0
    7.0805   -3.4338    0.0000 C   0  0  0  0  0  0  0  0  0  0  0  0
    8.5136   -3.4338    0.0000 C   0  0  0  0  0  0  0  0  0  0  0  0
    3.4953   -3.8548    0.0000 C   0  0  0  0  0  0  0  0  0  0  0  0
    4.2001   -3.4481    0.0000 C   0  0  0  0  0  0  0  0  0  0  0  0
    3.5048   -4.6825    0.0000 C   0  0  0  0  0  0  0  0  0  0  0  0
    4.2285   -5.0940    0.0000 C   0  0  0  0  0  0  0  0  0  0  0  0
    4.9379   -4.6683    0.0000 C   0  0  0  0  0  0  0  0  0  0  0  0
    4.9379   -3.8737    0.0000 C   0  0  0  0  0  0  0  0  0  0  0  0
    3.7886   -0.2483    0.0000 O   0  0  0  0  0  0  0  0  0  0  0  0
    4.6115   -0.2483    0.0000 O   0  0  0  0  0  0  0  0  0  0  0  0
    7.7971   -3.8524    0.0000 N   0  0  0  0  0  0  0  0  0  0  0  0
    2.0645   -1.3693    0.0000 N   0  0  0  0  0  0  0  0  0  0  0  0
    2.7882   -2.6179    0.0000 N   0  0  0  0  0  0  0  0  0  0  0  0
    4.2142   -0.9578    0.0000 S   0  0  0  0  0  0  0  0  0  0  0  0
  5  6  1  0  0  0  0
  1  8  2  0  0  0  0
  8  9  1  0  0  0  0
 10 11  1  0  0  0  0
 11 12  2  0  0  0  0
 12 13  1  0  0  0  0
 13 14  2  0  0  0  0
 14 15  1  0  0  0  0
 10 15  2  0  0  0  0
 10 16  1  0  0  0  0
  9 17  2  0  0  0  0
  3 17  1  0  0  0  0
 18 19  1  0  0  0  0
 19 20  1  0  0  0  0
 20 21  1  0  0  0  0
 21 22  1  0  0  0  0
  2 22  1  0  0  0  0
  4 23  1  0  0  0  0
 23 24  2  0  0  0  0
 16 24  1  0  0  0  0
 16 25  2  0  0  0  0
 23 26  1  0  0  0  0
  7 27  1  0  0  0  0
 27 28  1  0  0  0  0
 27 29  2  0  0  0  0
 29 30  1  0  0  0  0
 30 31  2  0  0  0  0
 31 32  1  0  0  0  0
 28 32  2  0  0  0  0
 25 35  1  0  0  0  0
 26 35  2  0  0  0  0
  8 36  1  0  0  0  0
 18 36  2  0  0  0  0
  7 37  1  0  0  0  0
 17 37  1  0  0  0  0
 18 37  1  0  0  0  0
  9 38  1  0  0  0  0
 13 38  1  0  0  0  0
 33 38  2  0  0  0  0
 34 38  2  0  0  0  0
  7  6  1  6  0  0  0
M  END
> <ID>
SCHEMBL21135360

> <InChIKey>
OIJKMQQCCVTYJJ-SANMLTNESA-N

> <MW>
531.67

> <Series_Name>
Series_13

$$$$
SCHEMBL21135365
  Mrv1719007161923582D 0   0.00000     0.00000     0

 28 30  0  0  0  0              1 V2000 
    0.0000   -2.2422    0.0000 C   0  0  0  0  0  0  0  0  0  0  0  0
    5.1985   -2.6491    0.0000 O   0  0  0  0  0  0  0  0  0  0  0  0
   10.0566   -2.2338    0.0000 F   0  0  0  0  0  0  0  0  0  0  0  0
    7.1805   -2.2146    0.0000 C   0  0  0  0  0  0  0  0  0  0  0  0
    7.1916   -1.4117    0.0000 C   0  0  0  0  0  0  0  0  0  0  0  0
    6.5438   -1.0298    0.0000 C   0  0  0  0  0  0  0  0  0  0  0  0
    5.7466   -1.4062    0.0000 C   0  0  0  0  0  0  0  0  0  0  0  0
    4.3182   -1.4062    0.0000 C   0  0  0  0  0  0  0  0  0  0  0  0
    4.3072   -2.2311    0.0000 C   0  0  0  0  0  0  0  0  0  0  0  0
    5.7466   -2.2255    0.0000 C   0  0  0  0  0  0  0  0  0  0  0  0
    6.4608   -2.6573    0.0000 C   0  0  0  0  0  0  0  0  0  0  0  0
    7.9057   -2.6519    0.0000 C   0  0  0  0  0  0  0  0  0  0  0  0
    2.8733   -2.2311    0.0000 C   0  0  0  0  0  0  0  0  0  0  0  0
    0.6810   -2.6408    0.0000 C   0  0  0  0  0  0  0  0  0  0  0  0
    2.1758   -2.6408    0.0000 C   0  0  0  0  0  0  0  0  0  0  0  0
    9.3507   -2.6519    0.0000 C   0  0  0  0  0  0  0  0  0  0  0  0
    8.6365   -2.2422    0.0000 C   0  0  0  0  0  0  0  0  0  0  0  0
    7.9057   -3.4712    0.0000 C   0  0  0  0  0  0  0  0  0  0  0  0
    9.3507   -3.4546    0.0000 C   0  0  0  0  0  0  0  0  0  0  0  0
    3.5779   -0.9966    0.0000 C   0  0  0  0  0  0  0  0  0  0  0  0
    3.5708   -0.1578    0.0000 O   0  0  0  0  0  0  0  0  0  0  0  0
    5.4311   -0.2740    0.0000 O   0  0  0  0  0  0  0  0  0  0  0  0
    4.6007   -0.2740    0.0000 O   0  0  0  0  0  0  0  0  0  0  0  0
    8.6282   -3.8947    0.0000 N   0  0  0  0  0  0  0  0  0  0  0  0
    3.5958   -2.6491    0.0000 N   0  0  0  0  0  0  0  0  0  0  0  0
    1.4284   -2.2338    0.0000 O   0  0  0  0  0  0  0  0  0  0  0  0
    2.8816   -1.4034    0.0000 N   0  0  0  0  0  0  0  0  0  0  0  0
    5.0325   -0.9882    0.0000 S   0  0  0  0  0  0  0  0  0  0  0  0
  4  5  1  0  0  0  0
  5  6  2  0  0  0  0
  6  7  1  0  0  0  0
  8  9  2  0  0  0  0
  2  9  1  0  0  0  0
  7 10  2  0  0  0  0
 10 11  1  0  0  0  0
  4 11  2  0  0  0  0
  4 12  1  0  0  0  0
  1 14  1  0  0  0  0
 13 15  1  0  0  0  0
  3 16  1  0  0  0  0
 16 17  2  0  0  0  0
 12 17  1  0  0  0  0
 12 18  2  0  0  0  0
 16 19  1  0  0  0  0
  8 20  1  0  0  0  0
 20 21  2  0  0  0  0
 18 24  1  0  0  0  0
 19 24  2  0  0  0  0
  9 25  1  0  0  0  0
 13 25  1  0  0  0  0
 14 26  1  0  0  0  0
 15 26  1  0  0  0  0
 13 27  2  0  0  0  0
 20 27  1  0  0  0  0
  7 28  1  0  0  0  0
  8 28  1  0  0  0  0
 22 28  2  0  0  0  0
 23 28  2  0  0  0  0
M  END
> <ID>
SCHEMBL21135365

> <InChIKey>
LFVBAKDAPPZQBE-UHFFFAOYSA-N

> <MW>
405.4

> <Series_Name>
Series_13

$$$$
SCHEMBL21135368
  Mrv1719007171900002D 0   0.00000     0.00000     0

 39 42  0  0  1  0              1 V2000 
    3.6275   -2.6677    0.0000 N   0  0  0  0  0  0  0  0  0  0  0  0
    3.6337   -3.4975    0.0000 C   0  0  2  0  0  0  0  0  0  0  0  0
    4.3541   -3.9166    0.0000 C   0  0  0  0  0  0  0  0  0  0  0  0
    5.0697   -3.5115    0.0000 C   0  0  0  0  0  0  0  0  0  0  0  0
    5.7738   -3.9226    0.0000 C   0  0  0  0  0  0  0  0  0  0  0  0
    4.3605   -4.7458    0.0000 C   0  0  0  0  0  0  0  0  0  0  0  0
    5.0601   -5.1573    0.0000 C   0  0  0  0  0  0  0  0  0  0  0  0
    5.7674   -4.7326    0.0000 C   0  0  0  0  0  0  0  0  0  0  0  0
    7.1947   -2.2642    0.0000 C   0  0  0  0  0  0  0  0  0  0  0  0
    7.9289   -2.6816    0.0000 C   0  0  0  0  0  0  0  0  0  0  0  0
    5.7864   -2.2751    0.0000 C   0  0  0  0  0  0  0  0  0  0  0  0
    6.4866   -2.6836    0.0000 C   0  0  0  0  0  0  0  0  0  0  0  0
    5.0390   -1.0303    0.0000 S   0  0  0  0  0  0  0  0  0  0  0  0
    5.7782   -1.4477    0.0000 C   0  0  0  0  0  0  0  0  0  0  0  0
    6.4898   -1.0423    0.0000 C   0  0  0  0  0  0  0  0  0  0  0  0
    7.2071   -1.4542    0.0000 C   0  0  0  0  0  0  0  0  0  0  0  0
    8.6305   -1.4467    0.0000 C   0  0  0  0  0  0  0  0  0  0  0  0
    8.6192   -2.3342    0.0000 C   0  0  0  0  0  0  0  0  0  0  0  0
    7.9279   -3.5178    0.0000 C   0  0  0  0  0  0  0  0  0  0  0  0
    9.3299   -2.6677    0.0000 N   0  0  0  0  0  0  0  0  0  0  0  0
    9.3491   -3.5052    0.0000 C   0  0  0  0  0  0  0  0  0  0  0  0
    8.6234   -3.9212    0.0000 C   0  0  0  0  0  0  0  0  0  0  0  0
    0.0849   -2.2755    0.0000 C   0  0  0  0  0  0  0  0  0  0  0  0
    0.7827   -2.6826    0.0000 C   0  0  0  0  0  0  0  0  0  0  0  0
    1.4820   -2.2584    0.0000 O   0  0  0  0  0  0  0  0  0  0  0  0
    0.7829   -3.4934    0.0000 C   0  0  0  0  0  0  0  0  0  0  0  0
    2.9234   -2.2791    0.0000 C   0  0  0  0  0  0  0  0  0  0  0  0
    2.2191   -2.6830    0.0000 C   0  0  0  0  0  0  0  0  0  0  0  0
    2.9218   -1.4398    0.0000 N   0  0  0  0  0  0  0  0  0  0  0  0
    4.3516   -2.2742    0.0000 C   0  0  0  0  0  0  0  0  0  0  0  0
    4.3525   -1.4469    0.0000 C   0  0  0  0  0  0  0  0  0  0  0  0
    3.5898   -1.0590    0.0000 C   0  0  0  0  0  0  0  0  0  0  0  0
    3.6275   -0.1976    0.0000 O   0  0  0  0  0  0  0  0  0  0  0  0
    5.1943   -2.6677    0.0000 O   0  0  0  0  0  0  0  0  0  0  0  0
    1.4808   -3.9313    0.0000 C   0  0  0  0  0  0  0  0  0  0  0  0
    2.1878   -3.5004    0.0000 O   0  0  0  0  0  0  0  0  0  0  0  0
    2.9106   -3.9076    0.0000 C   0  0  0  0  0  0  0  0  0  0  0  0
    5.4623   -0.3105    0.0000 O   0  0  0  0  0  0  0  0  0  0  0  0
    4.6296   -0.3105    0.0000 O   0  0  0  0  0  0  0  0  0  0  0  0
  1 30  1  0  0  0  0
  2  1  1  0  0  0  0
  2  3  1  0  0  0  0
  2 37  1  6  0  0  0
  3  6  2  0  0  0  0
  4  5  2  0  0  0  0
  4  3  1  0  0  0  0
  6  7  1  0  0  0  0
  7  8  2  0  0  0  0
  8  5  1  0  0  0  0
  9 10  1  0  0  0  0
  9 16  1  0  0  0  0
 10 18  1  0  0  0  0
 11 12  1  0  0  0  0
 12  9  2  0  0  0  0
 13 14  1  0  0  0  0
 13 31  1  0  0  0  0
 13 38  2  0  0  0  0
 14 11  2  0  0  0  0
 15 16  2  0  0  0  0
 15 14  1  0  0  0  0
 17 18  1  0  0  0  0
 18 20  2  0  0  0  0
 19 10  2  0  0  0  0
 19 22  1  0  0  0  0
 20 21  1  0  0  0  0
 22 21  2  0  0  0  0
 23 24  1  0  0  0  0
 24 25  1  0  0  0  0
 26 24  1  0  0  0  0
 27 28  1  0  0  0  0
 27  1  1  0  0  0  0
 28 25  1  0  0  0  0
 29 27  2  0  0  0  0
 29 32  1  0  0  0  0
 30 31  2  0  0  0  0
 31 32  1  0  0  0  0
 32 33  2  0  0  0  0
 34 30  1  0  0  0  0
 35 36  1  0  0  0  0
 36 37  1  0  0  0  0
 39 13  2  0  0  0  0
M  END
> <ID>
SCHEMBL21135368

> <InChIKey>
JUDNLXUXTLHXBJ-VWLOTQADSA-N

> <MW>
549.64

> <Series_Name>
Series_13

$$$$
SCHEMBL21135370
  Mrv1719007171900002D 0   0.00000     0.00000     0

 36 39  0  0  0  0              1 V2000 
    3.5473   -0.1567    0.0000 O   0  0  0  0  0  0  0  0  0  0  0  0
    5.1642   -2.6316    0.0000 O   0  0  0  0  0  0  0  0  0  0  0  0
    6.4264   -3.4566    0.0000 F   0  0  0  0  0  0  0  0  0  0  0  0
    0.0165   -2.2274    0.0000 C   0  0  0  0  0  0  0  0  0  0  0  0
    9.9902   -3.8690    0.0000 F   0  0  0  0  0  0  0  0  0  0  0  0
    3.6023   -0.9899    0.0000 C   0  0  0  0  0  0  0  0  0  0  0  0
    7.1331   -2.1999    0.0000 C   0  0  0  0  0  0  0  0  0  0  0  0
    7.1441   -1.4024    0.0000 C   0  0  0  0  0  0  0  0  0  0  0  0
    6.4842   -1.0065    0.0000 C   0  0  0  0  0  0  0  0  0  0  0  0
    5.7087   -1.3969    0.0000 C   0  0  0  0  0  0  0  0  0  0  0  0
    4.2788   -1.3859    0.0000 C   0  0  0  0  0  0  0  0  0  0  0  0
    4.2898   -2.1999    0.0000 C   0  0  0  0  0  0  0  0  0  0  0  0
    5.7087   -2.2109    0.0000 C   0  0  0  0  0  0  0  0  0  0  0  0
    6.4237   -2.6234    0.0000 C   0  0  0  0  0  0  0  0  0  0  0  0
    2.8433   -2.1999    0.0000 C   0  0  0  0  0  0  0  0  0  0  0  0
    2.1284   -2.6234    0.0000 C   0  0  0  0  0  0  0  0  0  0  0  0
    7.8536   -2.6344    0.0000 C   0  0  0  0  0  0  0  0  0  0  0  0
    8.5631   -2.2109    0.0000 C   0  0  0  0  0  0  0  0  0  0  0  0
    0.6930   -2.6234    0.0000 C   0  0  0  0  0  0  0  0  0  0  0  0
    7.8536   -3.4483    0.0000 C   0  0  0  0  0  0  0  0  0  0  0  0
    8.5465   -3.8608    0.0000 C   0  0  0  0  0  0  0  0  0  0  0  0
    9.2780   -3.4373    0.0000 C   0  0  0  0  0  0  0  0  0  0  0  0
    3.5638   -3.4483    0.0000 C   0  0  0  0  0  0  0  0  0  0  0  0
    4.2788   -3.8608    0.0000 C   0  0  0  0  0  0  0  0  0  0  0  0
    4.9663   -3.4648    0.0000 C   0  0  0  0  0  0  0  0  0  0  0  0
    4.2898   -4.6857    0.0000 C   0  0  0  0  0  0  0  0  0  0  0  0
    4.9992   -5.0982    0.0000 C   0  0  0  0  0  0  0  0  0  0  0  0
    5.7087   -4.6692    0.0000 C   0  0  0  0  0  0  0  0  0  0  0  0
    5.7087   -3.8773    0.0000 C   0  0  0  0  0  0  0  0  0  0  0  0
    4.5702   -0.2557    0.0000 O   0  0  0  0  0  0  0  0  0  0  0  0
    5.3952   -0.2557    0.0000 O   0  0  0  0  0  0  0  0  0  0  0  0
    3.5721   -2.6316    0.0000 N   0  0  0  0  0  0  0  0  0  0  0  0
    9.2972   -2.6316    0.0000 N   0  0  0  0  0  0  0  0  0  0  0  0
    1.4189   -2.2191    0.0000 O   0  0  0  0  0  0  0  0  0  0  0  0
    2.8626   -1.3942    0.0000 N   0  0  0  0  0  0  0  0  0  0  0  0
    4.9992   -0.9817    0.0000 S   0  0  0  0  0  0  0  0  0  0  0  0
  1  6  2  0  0  0  0
  7  8  1  0  0  0  0
  8  9  2  0  0  0  0
  9 10  1  0  0  0  0
  6 11  1  0  0  0  0
 11 12  2  0  0  0  0
  2 12  1  0  0  0  0
 10 13  2  0  0  0  0
 13 14  1  0  0  0  0
  7 14  2  0  0  0  0
  3 14  1  0  0  0  0
 15 16  1  0  0  0  0
  7 17  1  0  0  0  0
 17 18  1  0  0  0  0
  4 19  1  0  0  0  0
 17 20  2  0  0  0  0
 20 21  1  0  0  0  0
 21 22  2  0  0  0  0
  5 22  1  0  0  0  0
 23 24  1  0  0  0  0
 24 25  1  0  0  0  0
 24 26  2  0  0  0  0
 26 27  1  0  0  0  0
 27 28  2  0  0  0  0
 28 29  1  0  0  0  0
 25 29  2  0  0  0  0
 12 32  1  0  0  0  0
 15 32  1  0  0  0  0
 23 32  1  0  0  0  0
 18 33  2  0  0  0  0
 22 33  1  0  0  0  0
 16 34  1  0  0  0  0
 19 34  1  0  0  0  0
  6 35  1  0  0  0  0
 15 35  2  0  0  0  0
 10 36  1  0  0  0  0
 11 36  1  0  0  0  0
 30 36  2  0  0  0  0
 31 36  2  0  0  0  0
M  END
> <ID>
SCHEMBL21135370

> <InChIKey>
POMZTBNFUGFPJV-UHFFFAOYSA-N

> <MW>
513.52

> <Series_Name>
Series_13

$$$$
SCHEMBL21135371
  Mrv1719007171900002D 0   0.00000     0.00000     0

 35 38  0  0  0  0              1 V2000 
    3.5629   -0.1574    0.0000 O   0  0  0  0  0  0  0  0  0  0  0  0
    0.0166   -2.2372    0.0000 C   0  0  0  0  0  0  0  0  0  0  0  0
    5.1869   -2.6432    0.0000 O   0  0  0  0  0  0  0  0  0  0  0  0
   10.0342   -2.2288    0.0000 F   0  0  0  0  0  0  0  0  0  0  0  0
    3.6182   -0.9943    0.0000 C   0  0  0  0  0  0  0  0  0  0  0  0
    7.1645   -2.2096    0.0000 C   0  0  0  0  0  0  0  0  0  0  0  0
    7.1756   -1.4086    0.0000 C   0  0  0  0  0  0  0  0  0  0  0  0
    6.5127   -1.0109    0.0000 C   0  0  0  0  0  0  0  0  0  0  0  0
    5.7338   -1.4031    0.0000 C   0  0  0  0  0  0  0  0  0  0  0  0
    4.2976   -1.3921    0.0000 C   0  0  0  0  0  0  0  0  0  0  0  0
    4.3086   -2.2096    0.0000 C   0  0  0  0  0  0  0  0  0  0  0  0
    5.7338   -2.2206    0.0000 C   0  0  0  0  0  0  0  0  0  0  0  0
    6.4298   -2.6349    0.0000 C   0  0  0  0  0  0  0  0  0  0  0  0
    7.8882   -2.6460    0.0000 C   0  0  0  0  0  0  0  0  0  0  0  0
    2.8559   -2.2096    0.0000 C   0  0  0  0  0  0  0  0  0  0  0  0
    2.1378   -2.6349    0.0000 C   0  0  0  0  0  0  0  0  0  0  0  0
    1.4251   -2.2206    0.0000 C   0  0  0  0  0  0  0  0  0  0  0  0
    0.6960   -2.6349    0.0000 C   0  0  0  0  0  0  0  0  0  0  0  0
    9.3188   -2.6294    0.0000 C   0  0  0  0  0  0  0  0  0  0  0  0
    8.6007   -2.2206    0.0000 C   0  0  0  0  0  0  0  0  0  0  0  0
    9.3299   -3.4469    0.0000 C   0  0  0  0  0  0  0  0  0  0  0  0
    7.8882   -3.4634    0.0000 C   0  0  0  0  0  0  0  0  0  0  0  0
    3.5794   -3.4634    0.0000 C   0  0  0  0  0  0  0  0  0  0  0  0
    4.2976   -3.8778    0.0000 C   0  0  0  0  0  0  0  0  0  0  0  0
    4.9881   -3.4800    0.0000 C   0  0  0  0  0  0  0  0  0  0  0  0
    4.3086   -4.7064    0.0000 C   0  0  0  0  0  0  0  0  0  0  0  0
    5.0213   -5.1207    0.0000 C   0  0  0  0  0  0  0  0  0  0  0  0
    5.7338   -4.6898    0.0000 C   0  0  0  0  0  0  0  0  0  0  0  0
    5.7338   -3.8944    0.0000 C   0  0  0  0  0  0  0  0  0  0  0  0
    4.5904   -0.2569    0.0000 O   0  0  0  0  0  0  0  0  0  0  0  0
    5.4189   -0.2569    0.0000 O   0  0  0  0  0  0  0  0  0  0  0  0
    3.5878   -2.6432    0.0000 N   0  0  0  0  0  0  0  0  0  0  0  0
    2.8752   -1.4003    0.0000 N   0  0  0  0  0  0  0  0  0  0  0  0
    8.6090   -3.8861    0.0000 N   0  0  0  0  0  0  0  0  0  0  0  0
    5.0213   -0.9860    0.0000 S   0  0  0  0  0  0  0  0  0  0  0  0
  1  5  2  0  0  0  0
  6  7  1  0  0  0  0
  7  8  2  0  0  0  0
  8  9  1  0  0  0  0
  5 10  1  0  0  0  0
 10 11  2  0  0  0  0
  3 11  1  0  0  0  0
  9 12  2  0  0  0  0
 12 13  1  0  0  0  0
  6 13  2  0  0  0  0
  6 14  1  0  0  0  0
 15 16  1  0  0  0  0
 16 17  1  0  0  0  0
 17 18  1  0  0  0  0
  2 18  1  0  0  0  0
  4 19  1  0  0  0  0
 19 20  2  0  0  0  0
 14 20  1  0  0  0  0
 19 21  1  0  0  0  0
 14 22  2  0  0  0  0
 23 24  1  0  0  0  0
 24 25  1  0  0  0  0
 24 26  2  0  0  0  0
 26 27  1  0  0  0  0
 27 28  2  0  0  0  0
 28 29  1  0  0  0  0
 25 29  2  0  0  0  0
 11 32  1  0  0  0  0
 15 32  1  0  0  0  0
 23 32  1  0  0  0  0
  5 33  1  0  0  0  0
 15 33  2  0  0  0  0
 21 34  2  0  0  0  0
 22 34  1  0  0  0  0
  9 35  1  0  0  0  0
 10 35  1  0  0  0  0
 30 35  2  0  0  0  0
 31 35  2  0  0  0  0
M  END
> <ID>
SCHEMBL21135371

> <InChIKey>
SFYJMXGJWHKWFO-UHFFFAOYSA-N

> <MW>
493.55

> <Series_Name>
Series_13

$$$$
SCHEMBL21135374
  Mrv1719007171900012D 0   0.00000     0.00000     0

 38 41  0  0  0  0              1 V2000 
    3.0266   -3.8627    0.0000 C   0  0  0  0  0  0  0  0  0  0  0  0
    5.2506   -2.6671    0.0000 O   0  0  0  0  0  0  0  0  0  0  0  0
    6.5298   -3.5032    0.0000 F   0  0  0  0  0  0  0  0  0  0  0  0
    0.0334   -2.2574    0.0000 C   0  0  0  0  0  0  0  0  0  0  0  0
    0.7358   -3.4780    0.0000 C   0  0  0  0  0  0  0  0  0  0  0  0
   10.1416   -3.9212    0.0000 F   0  0  0  0  0  0  0  0  0  0  0  0
    3.6230   -3.4948    0.0000 C   0  0  1  0  0  0  0  0  0  0  0  0
    7.2460   -2.2295    0.0000 C   0  0  0  0  0  0  0  0  0  0  0  0
    7.2571   -1.4213    0.0000 C   0  0  0  0  0  0  0  0  0  0  0  0
    6.5047   -1.0033    0.0000 C   0  0  0  0  0  0  0  0  0  0  0  0
    5.8023   -1.4158    0.0000 C   0  0  0  0  0  0  0  0  0  0  0  0
    4.3532   -1.4046    0.0000 C   0  0  0  0  0  0  0  0  0  0  0  0
    4.3643   -2.2295    0.0000 C   0  0  0  0  0  0  0  0  0  0  0  0
    5.8023   -2.2407    0.0000 C   0  0  0  0  0  0  0  0  0  0  0  0
    6.5269   -2.6587    0.0000 C   0  0  0  0  0  0  0  0  0  0  0  0
    2.8984   -2.2295    0.0000 C   0  0  0  0  0  0  0  0  0  0  0  0
    2.1571   -2.6587    0.0000 C   0  0  0  0  0  0  0  0  0  0  0  0
    7.9762   -2.6698    0.0000 C   0  0  0  0  0  0  0  0  0  0  0  0
    0.7358   -2.6698    0.0000 C   0  0  0  0  0  0  0  0  0  0  0  0
    8.6785   -2.2574    0.0000 C   0  0  0  0  0  0  0  0  0  0  0  0
    7.9762   -3.4948    0.0000 C   0  0  0  0  0  0  0  0  0  0  0  0
    8.6116   -3.8794    0.0000 C   0  0  0  0  0  0  0  0  0  0  0  0
    9.4198   -3.4837    0.0000 C   0  0  0  0  0  0  0  0  0  0  0  0
    4.3532   -3.9128    0.0000 C   0  0  0  0  0  0  0  0  0  0  0  0
    5.0499   -3.5116    0.0000 C   0  0  0  0  0  0  0  0  0  0  0  0
    4.3643   -4.7489    0.0000 C   0  0  0  0  0  0  0  0  0  0  0  0
    5.1001   -5.1670    0.0000 C   0  0  0  0  0  0  0  0  0  0  0  0
    5.8023   -4.7489    0.0000 C   0  0  0  0  0  0  0  0  0  0  0  0
    5.8023   -3.9296    0.0000 C   0  0  0  0  0  0  0  0  0  0  0  0
    3.6188   -1.0033    0.0000 C   0  0  0  0  0  0  0  0  0  0  0  0
    3.6119   -0.1589    0.0000 O   0  0  0  0  0  0  0  0  0  0  0  0
    4.6486   -0.2759    0.0000 O   0  0  0  0  0  0  0  0  0  0  0  0
    5.4847   -0.2759    0.0000 O   0  0  0  0  0  0  0  0  0  0  0  0
    3.6369   -2.6671    0.0000 N   0  0  0  0  0  0  0  0  0  0  0  0
    9.4393   -2.6671    0.0000 N   0  0  0  0  0  0  0  0  0  0  0  0
    1.4548   -2.2490    0.0000 O   0  0  0  0  0  0  0  0  0  0  0  0
    2.9179   -1.4129    0.0000 N   0  0  0  0  0  0  0  0  0  0  0  0
    5.0834   -0.9949    0.0000 S   0  0  0  0  0  0  0  0  0  0  0  0
  8  9  1  0  0  0  0
  9 10  2  0  0  0  0
 10 11  1  0  0  0  0
 12 13  2  0  0  0  0
  2 13  1  0  0  0  0
 11 14  2  0  0  0  0
 14 15  1  0  0  0  0
  8 15  2  0  0  0  0
  3 15  1  0  0  0  0
 16 17  1  0  0  0  0
  8 18  1  0  0  0  0
  4 19  1  0  0  0  0
  5 19  1  0  0  0  0
 18 20  1  0  0  0  0
 18 21  2  0  0  0  0
 21 22  1  0  0  0  0
 22 23  2  0  0  0  0
  6 23  1  0  0  0  0
  7 24  1  0  0  0  0
 24 25  1  0  0  0  0
 24 26  2  0  0  0  0
 26 27  1  0  0  0  0
 27 28  2  0  0  0  0
 28 29  1  0  0  0  0
 25 29  2  0  0  0  0
 12 30  1  0  0  0  0
 30 31  2  0  0  0  0
  7 34  1  0  0  0  0
 13 34  1  0  0  0  0
 16 34  1  0  0  0  0
 20 35  2  0  0  0  0
 23 35  1  0  0  0  0
 17 36  1  0  0  0  0
 19 36  1  0  0  0  0
 16 37  2  0  0  0  0
 30 37  1  0  0  0  0
 11 38  1  0  0  0  0
 12 38  1  0  0  0  0
 32 38  2  0  0  0  0
 33 38  2  0  0  0  0
  7  1  1  6  0  0  0
M  END
> <ID>
SCHEMBL21135374

> <InChIKey>
DFHNMPJIKWXGNZ-KRWDZBQOSA-N

> <MW>
541.57

> <Series_Name>
Series_13

$$$$
SCHEMBL21135421
  Mrv1719007171900282D 0   0.00000     0.00000     0

 37 41  0  0  0  0              1 V2000 
    0.0165   -2.2317    0.0000 C   0  0  0  0  0  0  0  0  0  0  0  0
    5.1743   -2.6367    0.0000 O   0  0  0  0  0  0  0  0  0  0  0  0
   10.0097   -2.2234    0.0000 F   0  0  0  0  0  0  0  0  0  0  0  0
    2.1601   -2.6340    0.0000 C   0  0  1  0  0  0  0  0  0  0  0  0
    2.1490   -3.8931    0.0000 C   0  0  0  0  0  0  0  0  0  0  0  0
    7.1470   -2.2042    0.0000 C   0  0  0  0  0  0  0  0  0  0  0  0
    7.1580   -1.4052    0.0000 C   0  0  0  0  0  0  0  0  0  0  0  0
    6.5133   -1.0250    0.0000 C   0  0  0  0  0  0  0  0  0  0  0  0
    5.7198   -1.3996    0.0000 C   0  0  0  0  0  0  0  0  0  0  0  0
    4.2981   -1.3996    0.0000 C   0  0  0  0  0  0  0  0  0  0  0  0
    4.2871   -2.2207    0.0000 C   0  0  0  0  0  0  0  0  0  0  0  0
    5.7198   -2.2152    0.0000 C   0  0  0  0  0  0  0  0  0  0  0  0
    6.4306   -2.6450    0.0000 C   0  0  0  0  0  0  0  0  0  0  0  0
    7.8689   -2.6395    0.0000 C   0  0  0  0  0  0  0  0  0  0  0  0
    2.8599   -2.2207    0.0000 C   0  0  0  0  0  0  0  0  0  0  0  0
    1.4382   -2.2317    0.0000 C   0  0  0  0  0  0  0  0  0  0  0  0
    0.6778   -2.6285    0.0000 C   0  0  0  0  0  0  0  0  0  0  0  0
    9.3070   -2.6395    0.0000 C   0  0  0  0  0  0  0  0  0  0  0  0
    8.5962   -2.2317    0.0000 C   0  0  0  0  0  0  0  0  0  0  0  0
    7.8689   -3.4551    0.0000 C   0  0  0  0  0  0  0  0  0  0  0  0
    9.3070   -3.4385    0.0000 C   0  0  0  0  0  0  0  0  0  0  0  0
    3.5597   -3.8904    0.0000 C   0  0  0  0  0  0  0  0  0  0  0  0
    4.2871   -4.3092    0.0000 C   0  0  0  0  0  0  0  0  0  0  0  0
    4.2981   -5.1247    0.0000 C   0  0  0  0  0  0  0  0  0  0  0  0
    3.6369   -5.5214    0.0000 C   0  0  0  0  0  0  0  0  0  0  0  0
    2.8599   -5.1412    0.0000 C   0  0  0  0  0  0  0  0  0  0  0  0
    2.8489   -4.3092    0.0000 C   0  0  0  0  0  0  0  0  0  0  0  0
    3.5611   -0.9919    0.0000 C   0  0  0  0  0  0  0  0  0  0  0  0
    3.5542   -0.1571    0.0000 O   0  0  0  0  0  0  0  0  0  0  0  0
    5.0172   -3.8931    0.0000 C   0  0  0  0  0  0  0  0  0  0  0  0
    5.4057   -0.2727    0.0000 O   0  0  0  0  0  0  0  0  0  0  0  0
    4.5791   -0.2727    0.0000 O   0  0  0  0  0  0  0  0  0  0  0  0
    5.7281   -3.4798    0.0000 N   0  0  0  0  0  0  0  0  0  0  0  0
    8.5880   -3.8765    0.0000 N   0  0  0  0  0  0  0  0  0  0  0  0
    3.5790   -2.6367    0.0000 N   0  0  0  0  0  0  0  0  0  0  0  0
    2.8682   -1.3969    0.0000 N   0  0  0  0  0  0  0  0  0  0  0  0
    5.0090   -0.9836    0.0000 S   0  0  0  0  0  0  0  0  0  0  0  0
  4  5  1  0  0  0  0
  6  7  1  0  0  0  0
  7  8  2  0  0  0  0
  8  9  1  0  0  0  0
 10 11  2  0  0  0  0
  2 11  1  0  0  0  0
  9 12  2  0  0  0  0
 12 13  1  0  0  0  0
  6 13  2  0  0  0  0
  6 14  1  0  0  0  0
  4 15  1  0  0  0  0
  4 16  1  6  0  0  0
 16 17  1  0  0  0  0
  1 17  1  0  0  0  0
  3 18  1  0  0  0  0
 18 19  2  0  0  0  0
 14 19  1  0  0  0  0
 14 20  2  0  0  0  0
 18 21  1  0  0  0  0
 22 23  1  0  0  0  0
 23 24  2  0  0  0  0
 24 25  1  0  0  0  0
 25 26  2  0  0  0  0
 26 27  1  0  0  0  0
 22 27  2  0  0  0  0
  5 27  1  0  0  0  0
 10 28  1  0  0  0  0
 28 29  2  0  0  0  0
 30 23  1  0  0  0  0
 30 33  3  0  0  0  0
 20 34  1  0  0  0  0
 21 34  2  0  0  0  0
 11 35  1  0  0  0  0
 15 35  1  0  0  0  0
 22 35  1  0  0  0  0
 15 36  2  0  0  0  0
 28 36  1  0  0  0  0
  9 37  1  0  0  0  0
 10 37  1  0  0  0  0
 31 37  2  0  0  0  0
 32 37  2  0  0  0  0
M  END
> <ID>
SCHEMBL21135421

> <InChIKey>
KEHXEGDPXYINOP-SFHVURJKSA-N

> <MW>
516.55

> <Series_Name>
Series_13

$$$$
SCHEMBL21135422
  Mrv1719007171900282D 0   0.00000     0.00000     0

 38 41  0  0  0  0              1 V2000 
    2.9496   -5.2335    0.0000 C   0  0  0  0  0  0  0  0  0  0  0  0
    2.9404   -4.3995    0.0000 C   0  0  0  0  0  0  0  0  0  0  0  0
    2.2209   -3.9743    0.0000 C   0  0  0  0  0  0  0  0  0  0  0  0
    3.6534   -3.9912    0.0000 C   0  0  0  0  0  0  0  0  0  0  0  0
    3.6492   -2.7080    0.0000 N   0  0  0  0  0  0  0  0  0  0  0  0
    5.0853   -3.9833    0.0000 C   0  0  0  0  0  0  0  0  0  0  0  0
    5.7958   -3.5501    0.0000 N   0  0  0  0  0  0  0  0  0  0  0  0
    4.3796   -4.3978    0.0000 C   0  0  0  0  0  0  0  0  0  0  0  0
    4.3821   -5.2228    0.0000 C   0  0  0  0  0  0  0  0  0  0  0  0
    3.6558   -5.6409    0.0000 C   0  0  0  0  0  0  0  0  0  0  0  0
    7.2430   -2.3149    0.0000 C   0  0  0  0  0  0  0  0  0  0  0  0
    7.9503   -2.7247    0.0000 C   0  0  0  0  0  0  0  0  0  0  0  0
    6.5159   -2.7289    0.0000 C   0  0  0  0  0  0  0  0  0  0  0  0
    5.0693   -1.0568    0.0000 S   0  0  0  0  0  0  0  0  0  0  0  0
    5.8045   -1.4881    0.0000 C   0  0  0  0  0  0  0  0  0  0  0  0
    6.5185   -1.0729    0.0000 C   0  0  0  0  0  0  0  0  0  0  0  0
    7.2431   -1.4905    0.0000 C   0  0  0  0  0  0  0  0  0  0  0  0
    8.6563   -2.3123    0.0000 C   0  0  0  0  0  0  0  0  0  0  0  0
    9.3888   -2.7225    0.0000 C   0  0  0  0  0  0  0  0  0  0  0  0
   10.0724   -2.2952    0.0000 F   0  0  0  0  0  0  0  0  0  0  0  0
    9.3705   -3.5409    0.0000 C   0  0  0  0  0  0  0  0  0  0  0  0
    8.6524   -3.9464    0.0000 N   0  0  0  0  0  0  0  0  0  0  0  0
    7.9547   -3.5485    0.0000 C   0  0  0  0  0  0  0  0  0  0  0  0
    5.8143   -2.3138    0.0000 C   0  0  0  0  0  0  0  0  0  0  0  0
    0.7904   -2.7187    0.0000 C   0  0  0  0  0  0  0  0  0  0  0  0
    1.5136   -2.3148    0.0000 C   0  0  0  0  0  0  0  0  0  0  0  0
    2.2213   -2.7179    0.0000 C   0  0  0  0  0  0  0  0  0  0  0  0
    2.9391   -1.4696    0.0000 N   0  0  0  0  0  0  0  0  0  0  0  0
    2.9521   -2.3158    0.0000 C   0  0  0  0  0  0  0  0  0  0  0  0
    0.0999   -2.3189    0.0000 C   0  0  0  0  0  0  0  0  0  0  0  0
    4.3799   -2.3027    0.0000 C   0  0  0  0  0  0  0  0  0  0  0  0
    4.3908   -1.4852    0.0000 C   0  0  0  0  0  0  0  0  0  0  0  0
    3.5989   -1.0951    0.0000 C   0  0  0  0  0  0  0  0  0  0  0  0
    3.6327   -0.2311    0.0000 O   0  0  0  0  0  0  0  0  0  0  0  0
    5.2344   -2.7080    0.0000 O   0  0  0  0  0  0  0  0  0  0  0  0
    5.4821   -0.3467    0.0000 O   0  0  0  0  0  0  0  0  0  0  0  0
    4.6564   -0.3467    0.0000 O   0  0  0  0  0  0  0  0  0  0  0  0
    2.2209   -3.0267    0.0000 C   0  0  0  0  0  0  0  0  0  0  0  0
  1  2  1  0  0  0  0
  1 10  2  0  0  0  0
  2  4  2  0  0  0  0
  3  2  1  0  0  0  0
  4  5  1  0  0  0  0
  4  8  1  0  0  0  0
  5 31  1  0  0  0  0
  6  7  3  0  0  0  0
  6  8  1  0  0  0  0
  8  9  2  0  0  0  0
 10  9  1  0  0  0  0
 11 12  1  0  0  0  0
 12 23  2  0  0  0  0
 13 11  2  0  0  0  0
 14 15  1  0  0  0  0
 14 32  1  0  0  0  0
 14 36  2  0  0  0  0
 15 24  2  0  0  0  0
 16 15  1  0  0  0  0
 16 17  2  0  0  0  0
 17 11  1  0  0  0  0
 18 12  1  0  0  0  0
 18 19  2  0  0  0  0
 19 20  1  0  0  0  0
 21 19  1  0  0  0  0
 22 21  2  0  0  0  0
 23 22  1  0  0  0  0
 24 13  1  0  0  0  0
 25 26  1  0  0  0  0
 25 30  1  0  0  0  0
 26 27  1  0  0  0  0
 28 29  2  0  0  0  0
 28 33  1  0  0  0  0
 29  5  1  0  0  0  0
 29 27  1  0  0  0  0
 31 32  2  0  0  0  0
 32 33  1  0  0  0  0
 33 34  2  0  0  0  0
 35 31  1  0  0  0  0
 37 14  2  0  0  0  0
 38  3  1  0  0  0  0
M  END
> <ID>
SCHEMBL21135422

> <InChIKey>
HXVHZRQQYFMEGQ-UHFFFAOYSA-N

> <MW>
532.59

> <Series_Name>
Series_13

$$$$
SCHEMBL21135423
  Mrv1719007171900282D 0   0.00000     0.00000     0

 36 39  0  0  0  0              1 V2000 
    3.5662   -0.1576    0.0000 O   0  0  0  0  0  0  0  0  0  0  0  0
    0.0166   -2.2392    0.0000 C   0  0  0  0  0  0  0  0  0  0  0  0
    5.1917   -2.6456    0.0000 O   0  0  0  0  0  0  0  0  0  0  0  0
   10.0434   -2.2309    0.0000 F   0  0  0  0  0  0  0  0  0  0  0  0
    5.0839   -5.9547    0.0000 Cl  0  0  0  0  0  0  0  0  0  0  0  0
    3.6215   -0.9952    0.0000 C   0  0  0  0  0  0  0  0  0  0  0  0
    7.1711   -2.2116    0.0000 C   0  0  0  0  0  0  0  0  0  0  0  0
    7.1821   -1.4099    0.0000 C   0  0  0  0  0  0  0  0  0  0  0  0
    6.5187   -1.0118    0.0000 C   0  0  0  0  0  0  0  0  0  0  0  0
    5.7391   -1.4043    0.0000 C   0  0  0  0  0  0  0  0  0  0  0  0
    4.3016   -1.3933    0.0000 C   0  0  0  0  0  0  0  0  0  0  0  0
    4.3126   -2.2116    0.0000 C   0  0  0  0  0  0  0  0  0  0  0  0
    5.7391   -2.2226    0.0000 C   0  0  0  0  0  0  0  0  0  0  0  0
    6.4357   -2.6373    0.0000 C   0  0  0  0  0  0  0  0  0  0  0  0
    7.8954   -2.6484    0.0000 C   0  0  0  0  0  0  0  0  0  0  0  0
    2.8585   -2.2116    0.0000 C   0  0  0  0  0  0  0  0  0  0  0  0
    2.1397   -2.6373    0.0000 C   0  0  0  0  0  0  0  0  0  0  0  0
    1.4265   -2.2226    0.0000 C   0  0  0  0  0  0  0  0  0  0  0  0
    0.6967   -2.6373    0.0000 C   0  0  0  0  0  0  0  0  0  0  0  0
    9.3274   -2.6318    0.0000 C   0  0  0  0  0  0  0  0  0  0  0  0
    8.6086   -2.2226    0.0000 C   0  0  0  0  0  0  0  0  0  0  0  0
    9.3384   -3.4501    0.0000 C   0  0  0  0  0  0  0  0  0  0  0  0
    7.8954   -3.4667    0.0000 C   0  0  0  0  0  0  0  0  0  0  0  0
    3.5828   -3.4667    0.0000 C   0  0  0  0  0  0  0  0  0  0  0  0
    4.3016   -3.8814    0.0000 C   0  0  0  0  0  0  0  0  0  0  0  0
    5.0148   -5.1199    0.0000 C   0  0  0  0  0  0  0  0  0  0  0  0
    5.7391   -4.6941    0.0000 C   0  0  0  0  0  0  0  0  0  0  0  0
    5.7391   -3.8980    0.0000 C   0  0  0  0  0  0  0  0  0  0  0  0
    5.0425   -3.4833    0.0000 C   0  0  0  0  0  0  0  0  0  0  0  0
    4.3126   -4.7107    0.0000 C   0  0  0  0  0  0  0  0  0  0  0  0
    4.5946   -0.2737    0.0000 O   0  0  0  0  0  0  0  0  0  0  0  0
    5.4239   -0.2737    0.0000 O   0  0  0  0  0  0  0  0  0  0  0  0
    8.6169   -3.8897    0.0000 N   0  0  0  0  0  0  0  0  0  0  0  0
    3.5911   -2.6456    0.0000 N   0  0  0  0  0  0  0  0  0  0  0  0
    2.8779   -1.4016    0.0000 N   0  0  0  0  0  0  0  0  0  0  0  0
    5.0259   -0.9869    0.0000 S   0  0  0  0  0  0  0  0  0  0  0  0
  1  6  2  0  0  0  0
  7  8  1  0  0  0  0
  8  9  2  0  0  0  0
  9 10  1  0  0  0  0
  6 11  1  0  0  0  0
 11 12  2  0  0  0  0
  3 12  1  0  0  0  0
 10 13  2  0  0  0  0
 13 14  1  0  0  0  0
  7 14  2  0  0  0  0
  7 15  1  0  0  0  0
 16 17  1  0  0  0  0
 17 18  1  0  0  0  0
 18 19  1  0  0  0  0
  2 19  1  0  0  0  0
  4 20  1  0  0  0  0
 20 21  2  0  0  0  0
 15 21  1  0  0  0  0
 20 22  1  0  0  0  0
 15 23  2  0  0  0  0
 24 25  1  0  0  0  0
  5 26  1  0  0  0  0
 26 27  2  0  0  0  0
 27 28  1  0  0  0  0
 28 29  2  0  0  0  0
 25 29  1  0  0  0  0
 25 30  2  0  0  0  0
 26 30  1  0  0  0  0
 22 33  2  0  0  0  0
 23 33  1  0  0  0  0
 12 34  1  0  0  0  0
 16 34  1  0  0  0  0
 24 34  1  0  0  0  0
  6 35  1  0  0  0  0
 16 35  2  0  0  0  0
 10 36  1  0  0  0  0
 11 36  1  0  0  0  0
 31 36  2  0  0  0  0
 32 36  2  0  0  0  0
M  END
> <ID>
SCHEMBL21135423

> <InChIKey>
AEJPURCMQMBNSB-UHFFFAOYSA-N

> <MW>
528.0

> <Series_Name>
Series_13

$$$$
SCHEMBL21135427
  Mrv1719007171900312D 0   0.00000     0.00000     0

 41 45  0  0  1  0              1 V2000 
    4.3740   -4.7378    0.0000 C   0  0  0  0  0  0  0  0  0  0  0  0
    5.0735   -5.1404    0.0000 C   0  0  0  0  0  0  0  0  0  0  0  0
    3.6400   -3.4915    0.0000 C   0  0  2  0  0  0  0  0  0  0  0  0
    4.3697   -3.9001    0.0000 C   0  0  0  0  0  0  0  0  0  0  0  0
    5.0786   -3.4872    0.0000 C   0  0  0  0  0  0  0  0  0  0  0  0
    5.7916   -3.9024    0.0000 C   0  0  0  0  0  0  0  0  0  0  0  0
    5.7957   -4.7278    0.0000 C   0  0  0  0  0  0  0  0  0  0  0  0
    5.0723   -6.7838    0.0000 N   0  0  0  0  0  0  0  0  0  0  0  0
    5.0763   -5.9711    0.0000 C   0  0  0  0  0  0  0  0  0  0  0  0
    2.1183   -3.9044    0.0000 C   0  0  0  0  0  0  0  0  0  0  0  0
    2.9249   -3.8958    0.0000 C   0  0  0  0  0  0  0  0  0  0  0  0
    2.5182   -4.6006    0.0000 C   0  0  0  0  0  0  0  0  0  0  0  0
    7.9428   -2.6612    0.0000 C   0  0  0  0  0  0  0  0  0  0  0  0
    7.2321   -2.2510    0.0000 C   0  0  0  0  0  0  0  0  0  0  0  0
    6.5089   -2.6642    0.0000 C   0  0  0  0  0  0  0  0  0  0  0  0
    5.7970   -2.2533    0.0000 C   0  0  0  0  0  0  0  0  0  0  0  0
    5.7964   -1.4207    0.0000 C   0  0  0  0  0  0  0  0  0  0  0  0
    5.0599   -0.9922    0.0000 S   0  0  0  0  0  0  0  0  0  0  0  0
    6.5097   -1.0081    0.0000 C   0  0  0  0  0  0  0  0  0  0  0  0
    7.2219   -1.4160    0.0000 C   0  0  0  0  0  0  0  0  0  0  0  0
    8.6565   -2.2497    0.0000 C   0  0  0  0  0  0  0  0  0  0  0  0
    9.3804   -2.6632    0.0000 C   0  0  0  0  0  0  0  0  0  0  0  0
    9.3645   -3.4904    0.0000 C   0  0  0  0  0  0  0  0  0  0  0  0
   10.0703   -3.8818    0.0000 F   0  0  0  0  0  0  0  0  0  0  0  0
    8.6565   -3.8818    0.0000 N   0  0  0  0  0  0  0  0  0  0  0  0
    7.9308   -3.4972    0.0000 C   0  0  0  0  0  0  0  0  0  0  0  0
    7.2241   -3.9098    0.0000 C   0  0  0  0  0  0  0  0  0  0  0  0
    0.7769   -2.6622    0.0000 C   0  0  0  0  0  0  0  0  0  0  0  0
    1.4971   -2.2513    0.0000 C   0  0  0  0  0  0  0  0  0  0  0  0
    2.9348   -2.2490    0.0000 C   0  0  0  0  0  0  0  0  0  0  0  0
    2.2091   -2.6618    0.0000 C   0  0  0  0  0  0  0  0  0  0  0  0
    2.9268   -1.4014    0.0000 N   0  0  0  0  0  0  0  0  0  0  0  0
    3.6461   -2.6416    0.0000 N   0  0  0  0  0  0  0  0  0  0  0  0
    0.0558   -2.2407    0.0000 C   0  0  0  0  0  0  0  0  0  0  0  0
    4.3697   -2.2408    0.0000 C   0  0  0  0  0  0  0  0  0  0  0  0
    4.3706   -1.4198    0.0000 C   0  0  0  0  0  0  0  0  0  0  0  0
    3.5996   -1.0226    0.0000 C   0  0  0  0  0  0  0  0  0  0  0  0
    3.6337   -0.1736    0.0000 O   0  0  0  0  0  0  0  0  0  0  0  0
    5.1839   -2.6540    0.0000 O   0  0  0  0  0  0  0  0  0  0  0  0
    4.6507   -0.2852    0.0000 O   0  0  0  0  0  0  0  0  0  0  0  0
    5.4816   -0.2852    0.0000 O   0  0  0  0  0  0  0  0  0  0  0  0
  1  2  1  0  0  0  0
  2  7  2  0  0  0  0
  3  4  1  0  0  0  0
  3 11  1  0  0  0  0
  3 33  1  6  0  0  0
  4  1  2  0  0  0  0
  5  4  1  0  0  0  0
  5  6  2  0  0  0  0
  7  6  1  0  0  0  0
  8  9  3  0  0  0  0
  9  2  1  0  0  0  0
 10 11  1  0  0  0  0
 12 10  1  0  0  0  0
 12 11  1  0  0  0  0
 13 14  1  0  0  0  0
 13 21  1  0  0  0  0
 15 14  2  0  0  0  0
 16 15  1  0  0  0  0
 17 18  1  0  0  0  0
 17 16  2  0  0  0  0
 18 41  2  0  0  0  0
 19 20  2  0  0  0  0
 19 17  1  0  0  0  0
 20 14  1  0  0  0  0
 21 22  2  0  0  0  0
 23 22  1  0  0  0  0
 23 24  1  0  0  0  0
 25 23  2  0  0  0  0
 25 26  1  0  0  0  0
 26 13  2  0  0  0  0
 27 26  1  0  0  0  0
 28 29  1  0  0  0  0
 28 34  1  0  0  0  0
 30 31  1  0  0  0  0
 30 33  1  0  0  0  0
 31 29  1  0  0  0  0
 32 30  2  0  0  0  0
 32 37  1  0  0  0  0
 33 35  1  0  0  0  0
 35 36  2  0  0  0  0
 36 37  1  0  0  0  0
 36 18  1  0  0  0  0
 37 38  2  0  0  0  0
 39 35  1  0  0  0  0
 40 18  2  0  0  0  0
M  END
> <ID>
SCHEMBL21135427

> <InChIKey>
UJSYMBZEYZIKRT-NDEPHWFRSA-N

> <MW>
572.66

> <Series_Name>
Series_13

$$$$
SCHEMBL21135641
  Mrv1719007171901472D 0   0.00000     0.00000     0

 38 41  0  0  0  0              1 V2000 
    2.9943   -3.8250    0.0000 C   0  0  0  0  0  0  0  0  0  0  0  0
    3.5655   -0.1645    0.0000 O   0  0  0  0  0  0  0  0  0  0  0  0
    0.0173   -2.2500    0.0000 C   0  0  0  0  0  0  0  0  0  0  0  0
    5.1924   -2.6568    0.0000 O   0  0  0  0  0  0  0  0  0  0  0  0
    7.2001   -3.8770    0.0000 C   0  0  0  0  0  0  0  0  0  0  0  0
   10.7309   -3.4962    0.0000 C   0  0  0  0  0  0  0  0  0  0  0  0
    3.5769   -3.4789    0.0000 C   0  0  1  0  0  0  0  0  0  0  0  0
    3.6231   -1.0039    0.0000 C   0  0  0  0  0  0  0  0  0  0  0  0
    7.1828   -2.2212    0.0000 C   0  0  0  0  0  0  0  0  0  0  0  0
    7.1828   -1.4192    0.0000 C   0  0  0  0  0  0  0  0  0  0  0  0
    6.5078   -1.0212    0.0000 C   0  0  0  0  0  0  0  0  0  0  0  0
    5.7463   -1.4135    0.0000 C   0  0  0  0  0  0  0  0  0  0  0  0
    4.3097   -1.4135    0.0000 C   0  0  0  0  0  0  0  0  0  0  0  0
    4.3097   -2.2212    0.0000 C   0  0  0  0  0  0  0  0  0  0  0  0
    5.7463   -2.2328    0.0000 C   0  0  0  0  0  0  0  0  0  0  0  0
    6.3693   -2.6135    0.0000 C   0  0  0  0  0  0  0  0  0  0  0  0
    7.8924   -2.6597    0.0000 C   0  0  0  0  0  0  0  0  0  0  0  0
    2.8616   -2.2212    0.0000 C   0  0  0  0  0  0  0  0  0  0  0  0
    2.1289   -2.6481    0.0000 C   0  0  0  0  0  0  0  0  0  0  0  0
    1.4019   -2.2500    0.0000 C   0  0  0  0  0  0  0  0  0  0  0  0
    0.6923   -2.6481    0.0000 C   0  0  0  0  0  0  0  0  0  0  0  0
    9.3290   -3.4847    0.0000 C   0  0  0  0  0  0  0  0  0  0  0  0
    9.3290   -2.6654    0.0000 C   0  0  0  0  0  0  0  0  0  0  0  0
    8.5847   -2.2500    0.0000 C   0  0  0  0  0  0  0  0  0  0  0  0
    7.8924   -3.4847    0.0000 C   0  0  0  0  0  0  0  0  0  0  0  0
    4.2982   -3.8943    0.0000 C   0  0  0  0  0  0  0  0  0  0  0  0
    5.0193   -3.4789    0.0000 C   0  0  0  0  0  0  0  0  0  0  0  0
    5.7463   -3.9116    0.0000 C   0  0  0  0  0  0  0  0  0  0  0  0
    5.7463   -4.7078    0.0000 C   0  0  0  0  0  0  0  0  0  0  0  0
    5.0366   -5.1405    0.0000 C   0  0  0  0  0  0  0  0  0  0  0  0
    4.3097   -4.7251    0.0000 C   0  0  0  0  0  0  0  0  0  0  0  0
    5.4174   -0.2856    0.0000 O   0  0  0  0  0  0  0  0  0  0  0  0
    4.5866   -0.2856    0.0000 O   0  0  0  0  0  0  0  0  0  0  0  0
    3.5914   -2.6568    0.0000 N   0  0  0  0  0  0  0  0  0  0  0  0
    2.8818   -1.4106    0.0000 N   0  0  0  0  0  0  0  0  0  0  0  0
    8.6280   -3.9030    0.0000 N   0  0  0  0  0  0  0  0  0  0  0  0
   10.0386   -3.9030    0.0000 O   0  0  0  0  0  0  0  0  0  0  0  0
    5.0193   -0.9952    0.0000 S   0  0  0  0  0  0  0  0  0  0  0  0
  2  8  2  0  0  0  0
  9 10  1  0  0  0  0
 10 11  2  0  0  0  0
 11 12  1  0  0  0  0
  8 13  1  0  0  0  0
 13 14  2  0  0  0  0
  4 14  1  0  0  0  0
 12 15  2  0  0  0  0
 15 16  1  0  0  0  0
  9 16  2  0  0  0  0
  9 17  1  0  0  0  0
 18 19  1  0  0  0  0
 19 20  1  0  0  0  0
 20 21  1  0  0  0  0
  3 21  1  0  0  0  0
 22 23  1  0  0  0  0
 23 24  2  0  0  0  0
 17 24  1  0  0  0  0
 17 25  2  0  0  0  0
  5 25  1  0  0  0  0
  7 26  1  0  0  0  0
 26 27  1  0  0  0  0
 27 28  2  0  0  0  0
 28 29  1  0  0  0  0
 29 30  2  0  0  0  0
 30 31  1  0  0  0  0
 26 31  2  0  0  0  0
  7 34  1  0  0  0  0
 14 34  1  0  0  0  0
 18 34  1  0  0  0  0
  8 35  1  0  0  0  0
 18 35  2  0  0  0  0
 22 36  2  0  0  0  0
 25 36  1  0  0  0  0
  6 37  1  0  0  0  0
 22 37  1  0  0  0  0
 12 38  1  0  0  0  0
 13 38  1  0  0  0  0
 32 38  2  0  0  0  0
 33 38  2  0  0  0  0
  7  1  1  6  0  0  0
M  END
> <ID>
SCHEMBL21135641

> <InChIKey>
KBSQNJYAQSXTGJ-FQEVSTJZSA-N

> <MW>
533.64

> <Series_Name>
Series_13

$$$$
SCHEMBL21135645
  Mrv1719007171901502D 0   0.00000     0.00000     0

 30 32  0  0  0  0              1 V2000 
    8.5930   -1.4239    0.0000 C   0  0  0  0  0  0  0  0  0  0  0  0
    0.0000   -2.2352    0.0000 C   0  0  0  0  0  0  0  0  0  0  0  0
    5.1823   -2.6408    0.0000 O   0  0  0  0  0  0  0  0  0  0  0  0
    0.7119   -3.4438    0.0000 C   0  0  0  0  0  0  0  0  0  0  0  0
   10.0252   -3.8826    0.0000 F   0  0  0  0  0  0  0  0  0  0  0  0
    7.1581   -2.2076    0.0000 C   0  0  0  0  0  0  0  0  0  0  0  0
    7.1691   -1.4074    0.0000 C   0  0  0  0  0  0  0  0  0  0  0  0
    6.5234   -1.0266    0.0000 C   0  0  0  0  0  0  0  0  0  0  0  0
    5.7287   -1.4019    0.0000 C   0  0  0  0  0  0  0  0  0  0  0  0
    4.3047   -1.4019    0.0000 C   0  0  0  0  0  0  0  0  0  0  0  0
    4.2937   -2.2242    0.0000 C   0  0  0  0  0  0  0  0  0  0  0  0
    5.7287   -2.2186    0.0000 C   0  0  0  0  0  0  0  0  0  0  0  0
    6.4407   -2.6492    0.0000 C   0  0  0  0  0  0  0  0  0  0  0  0
    7.8811   -2.6437    0.0000 C   0  0  0  0  0  0  0  0  0  0  0  0
    8.5930   -2.2242    0.0000 C   0  0  0  0  0  0  0  0  0  0  0  0
    2.8643   -2.2242    0.0000 C   0  0  0  0  0  0  0  0  0  0  0  0
    0.7119   -2.6437    0.0000 C   0  0  0  0  0  0  0  0  0  0  0  0
    2.1690   -2.6325    0.0000 C   0  0  0  0  0  0  0  0  0  0  0  0
    7.8811   -3.4604    0.0000 C   0  0  0  0  0  0  0  0  0  0  0  0
    8.5930   -3.8909    0.0000 C   0  0  0  0  0  0  0  0  0  0  0  0
    9.3105   -3.4660    0.0000 C   0  0  0  0  0  0  0  0  0  0  0  0
    3.5666   -0.9934    0.0000 C   0  0  0  0  0  0  0  0  0  0  0  0
    3.5597   -0.1573    0.0000 O   0  0  0  0  0  0  0  0  0  0  0  0
    5.4141   -0.2732    0.0000 O   0  0  0  0  0  0  0  0  0  0  0  0
    4.5863   -0.2732    0.0000 O   0  0  0  0  0  0  0  0  0  0  0  0
    9.3298   -2.6408    0.0000 N   0  0  0  0  0  0  0  0  0  0  0  0
    3.5846   -2.6408    0.0000 N   0  0  0  0  0  0  0  0  0  0  0  0
    1.4239   -2.2269    0.0000 O   0  0  0  0  0  0  0  0  0  0  0  0
    2.8726   -1.3991    0.0000 N   0  0  0  0  0  0  0  0  0  0  0  0
    5.0167   -0.9852    0.0000 S   0  0  0  0  0  0  0  0  0  0  0  0
  6  7  1  0  0  0  0
  7  8  2  0  0  0  0
  8  9  1  0  0  0  0
 10 11  2  0  0  0  0
  3 11  1  0  0  0  0
  9 12  2  0  0  0  0
 12 13  1  0  0  0  0
  6 13  2  0  0  0  0
  6 14  1  0  0  0  0
  1 15  1  0  0  0  0
 14 15  1  0  0  0  0
  2 17  1  0  0  0  0
  4 17  1  0  0  0  0
 16 18  1  0  0  0  0
 14 19  2  0  0  0  0
 19 20  1  0  0  0  0
 20 21  2  0  0  0  0
  5 21  1  0  0  0  0
 10 22  1  0  0  0  0
 22 23  2  0  0  0  0
 15 26  2  0  0  0  0
 21 26  1  0  0  0  0
 11 27  1  0  0  0  0
 16 27  1  0  0  0  0
 17 28  1  0  0  0  0
 18 28  1  0  0  0  0
 16 29  2  0  0  0  0
 22 29  1  0  0  0  0
  9 30  1  0  0  0  0
 10 30  1  0  0  0  0
 24 30  2  0  0  0  0
 25 30  2  0  0  0  0
M  END
> <ID>
SCHEMBL21135645

> <InChIKey>
LBPMWQBYZOZSKR-UHFFFAOYSA-N

> <MW>
433.45

> <Series_Name>
Series_13

$$$$
SCHEMBL21135647
  Mrv1719007171901502D 0   0.00000     0.00000     0

 37 40  0  0  0  0              1 V2000 
    3.5950   -0.1588    0.0000 O   0  0  0  0  0  0  0  0  0  0  0  0
    0.0167   -2.2573    0.0000 C   0  0  0  0  0  0  0  0  0  0  0  0
    5.2337   -2.6670    0.0000 O   0  0  0  0  0  0  0  0  0  0  0  0
    7.2569   -3.8959    0.0000 C   0  0  0  0  0  0  0  0  0  0  0  0
   10.1245   -3.9210    0.0000 F   0  0  0  0  0  0  0  0  0  0  0  0
    5.1250   -6.0028    0.0000 Cl  0  0  0  0  0  0  0  0  0  0  0  0
    3.6507   -1.0032    0.0000 C   0  0  0  0  0  0  0  0  0  0  0  0
    7.2290   -2.2295    0.0000 C   0  0  0  0  0  0  0  0  0  0  0  0
    7.2401   -1.4213    0.0000 C   0  0  0  0  0  0  0  0  0  0  0  0
    6.5713   -1.0200    0.0000 C   0  0  0  0  0  0  0  0  0  0  0  0
    5.7854   -1.4157    0.0000 C   0  0  0  0  0  0  0  0  0  0  0  0
    4.3363   -1.4046    0.0000 C   0  0  0  0  0  0  0  0  0  0  0  0
    4.3474   -2.2295    0.0000 C   0  0  0  0  0  0  0  0  0  0  0  0
    5.7854   -2.2406    0.0000 C   0  0  0  0  0  0  0  0  0  0  0  0
    6.4877   -2.6586    0.0000 C   0  0  0  0  0  0  0  0  0  0  0  0
    7.9591   -2.6698    0.0000 C   0  0  0  0  0  0  0  0  0  0  0  0
    2.8816   -2.2295    0.0000 C   0  0  0  0  0  0  0  0  0  0  0  0
    2.1570   -2.6586    0.0000 C   0  0  0  0  0  0  0  0  0  0  0  0
    1.4380   -2.2406    0.0000 C   0  0  0  0  0  0  0  0  0  0  0  0
    0.7022   -2.6586    0.0000 C   0  0  0  0  0  0  0  0  0  0  0  0
    9.4139   -3.4835    0.0000 C   0  0  0  0  0  0  0  0  0  0  0  0
    9.4139   -2.6754    0.0000 C   0  0  0  0  0  0  0  0  0  0  0  0
    8.7116   -2.2573    0.0000 C   0  0  0  0  0  0  0  0  0  0  0  0
    7.9480   -3.4835    0.0000 C   0  0  0  0  0  0  0  0  0  0  0  0
    3.6117   -3.4947    0.0000 C   0  0  0  0  0  0  0  0  0  0  0  0
    4.3363   -3.9127    0.0000 C   0  0  0  0  0  0  0  0  0  0  0  0
    5.0553   -5.1612    0.0000 C   0  0  0  0  0  0  0  0  0  0  0  0
    5.7854   -4.7320    0.0000 C   0  0  0  0  0  0  0  0  0  0  0  0
    5.7854   -3.9294    0.0000 C   0  0  0  0  0  0  0  0  0  0  0  0
    5.0832   -3.5114    0.0000 C   0  0  0  0  0  0  0  0  0  0  0  0
    4.3474   -4.7488    0.0000 C   0  0  0  0  0  0  0  0  0  0  0  0
    4.6317   -0.2759    0.0000 O   0  0  0  0  0  0  0  0  0  0  0  0
    5.4677   -0.2759    0.0000 O   0  0  0  0  0  0  0  0  0  0  0  0
    8.6865   -3.9210    0.0000 N   0  0  0  0  0  0  0  0  0  0  0  0
    3.6201   -2.6670    0.0000 N   0  0  0  0  0  0  0  0  0  0  0  0
    2.9010   -1.4129    0.0000 N   0  0  0  0  0  0  0  0  0  0  0  0
    5.0664   -0.9949    0.0000 S   0  0  0  0  0  0  0  0  0  0  0  0
  1  7  2  0  0  0  0
  8  9  1  0  0  0  0
  9 10  2  0  0  0  0
 10 11  1  0  0  0  0
  7 12  1  0  0  0  0
 12 13  2  0  0  0  0
  3 13  1  0  0  0  0
 11 14  2  0  0  0  0
 14 15  1  0  0  0  0
  8 15  2  0  0  0  0
  8 16  1  0  0  0  0
 17 18  1  0  0  0  0
 18 19  1  0  0  0  0
 19 20  1  0  0  0  0
  2 20  1  0  0  0  0
  5 21  1  0  0  0  0
 21 22  1  0  0  0  0
 22 23  2  0  0  0  0
 16 23  1  0  0  0  0
 16 24  2  0  0  0  0
  4 24  1  0  0  0  0
 25 26  1  0  0  0  0
  6 27  1  0  0  0  0
 27 28  2  0  0  0  0
 28 29  1  0  0  0  0
 29 30  2  0  0  0  0
 26 30  1  0  0  0  0
 26 31  2  0  0  0  0
 27 31  1  0  0  0  0
 21 34  2  0  0  0  0
 24 34  1  0  0  0  0
 13 35  1  0  0  0  0
 17 35  1  0  0  0  0
 25 35  1  0  0  0  0
  7 36  1  0  0  0  0
 17 36  2  0  0  0  0
 11 37  1  0  0  0  0
 12 37  1  0  0  0  0
 32 37  2  0  0  0  0
 33 37  2  0  0  0  0
M  END
> <ID>
SCHEMBL21135647

> <InChIKey>
WRMYPCBQGXNPAD-UHFFFAOYSA-N

> <MW>
542.02

> <Series_Name>
Series_13

$$$$
SCHEMBL21135658
  Mrv1719007171901542D 0   0.00000     0.00000     0

 38 41  0  0  0  0              1 V2000 
    2.7633   -0.1346    0.0000 O   0  0  0  0  0  0  0  0  0  0  0  0
    1.3321   -2.5791    0.0000 C   0  0  0  0  0  0  0  0  0  0  0  0
    4.3505   -2.6145    0.0000 O   0  0  0  0  0  0  0  0  0  0  0  0
    1.3604   -3.4436    0.0000 C   0  0  0  0  0  0  0  0  0  0  0  0
    9.2182   -3.8473    0.0000 F   0  0  0  0  0  0  0  0  0  0  0  0
    2.0477   -3.8403    0.0000 C   0  0  0  0  0  0  0  0  0  0  0  0
    2.7775   -3.4341    0.0000 C   0  0  1  0  0  0  0  0  0  0  0  0
    2.7303   -0.9683    0.0000 C   0  0  0  0  0  0  0  0  0  0  0  0
    3.4908   -1.3699    0.0000 C   0  0  0  0  0  0  0  0  0  0  0  0
    6.3628   -2.1870    0.0000 C   0  0  0  0  0  0  0  0  0  0  0  0
    6.3628   -1.3887    0.0000 C   0  0  0  0  0  0  0  0  0  0  0  0
    5.6258   -0.9636    0.0000 C   0  0  0  0  0  0  0  0  0  0  0  0
    4.9221   -1.3699    0.0000 C   0  0  0  0  0  0  0  0  0  0  0  0
    4.9598   -2.2248    0.0000 C   0  0  0  0  0  0  0  0  0  0  0  0
    5.6542   -2.6074    0.0000 C   0  0  0  0  0  0  0  0  0  0  0  0
    7.0713   -2.6169    0.0000 C   0  0  0  0  0  0  0  0  0  0  0  0
    3.5002   -2.1870    0.0000 C   0  0  0  0  0  0  0  0  0  0  0  0
    2.0548   -2.1870    0.0000 C   0  0  0  0  0  0  0  0  0  0  0  0
    0.6519   -3.0893    0.0000 C   0  0  0  0  0  0  0  0  0  0  0  0
    0.0142   -2.6216    0.0000 C   0  0  0  0  0  0  0  0  0  0  0  0
    0.2692   -1.8281    0.0000 C   0  0  0  0  0  0  0  0  0  0  0  0
    1.0770   -1.8281    0.0000 C   0  0  0  0  0  0  0  0  0  0  0  0
    8.5025   -3.4341    0.0000 C   0  0  0  0  0  0  0  0  0  0  0  0
    8.5025   -2.6216    0.0000 C   0  0  0  0  0  0  0  0  0  0  0  0
    7.7798   -2.1965    0.0000 C   0  0  0  0  0  0  0  0  0  0  0  0
    7.0713   -3.4294    0.0000 C   0  0  0  0  0  0  0  0  0  0  0  0
    3.4908   -3.8497    0.0000 C   0  0  0  0  0  0  0  0  0  0  0  0
    4.1945   -3.4436    0.0000 C   0  0  0  0  0  0  0  0  0  0  0  0
    3.5002   -4.6764    0.0000 C   0  0  0  0  0  0  0  0  0  0  0  0
    4.2229   -5.0873    0.0000 C   0  0  0  0  0  0  0  0  0  0  0  0
    4.9315   -4.6623    0.0000 C   0  0  0  0  0  0  0  0  0  0  0  0
    4.9315   -3.8686    0.0000 C   0  0  0  0  0  0  0  0  0  0  0  0
    3.7836   -0.2480    0.0000 O   0  0  0  0  0  0  0  0  0  0  0  0
    4.6056   -0.2480    0.0000 O   0  0  0  0  0  0  0  0  0  0  0  0
    2.7846   -2.6145    0.0000 N   0  0  0  0  0  0  0  0  0  0  0  0
    2.0619   -1.3675    0.0000 N   0  0  0  0  0  0  0  0  0  0  0  0
    7.7869   -3.8473    0.0000 N   0  0  0  0  0  0  0  0  0  0  0  0
    4.2087   -0.9565    0.0000 S   0  0  0  0  0  0  0  0  0  0  0  0
  4  6  1  0  0  0  0
  1  8  2  0  0  0  0
  8  9  1  0  0  0  0
 10 11  1  0  0  0  0
 11 12  2  0  0  0  0
 12 13  1  0  0  0  0
 13 14  2  0  0  0  0
 14 15  1  0  0  0  0
 10 15  2  0  0  0  0
 10 16  1  0  0  0  0
  9 17  2  0  0  0  0
  3 17  1  0  0  0  0
 18 19  1  0  0  0  0
 19 20  1  0  0  0  0
 20 21  1  0  0  0  0
 21 22  1  0  0  0  0
  2 22  1  0  0  0  0
  5 23  1  0  0  0  0
 23 24  1  0  0  0  0
 24 25  2  0  0  0  0
 16 25  1  0  0  0  0
 16 26  2  0  0  0  0
  7 27  1  0  0  0  0
 27 28  1  0  0  0  0
 27 29  2  0  0  0  0
 29 30  1  0  0  0  0
 30 31  2  0  0  0  0
 31 32  1  0  0  0  0
 28 32  2  0  0  0  0
  7 35  1  0  0  0  0
 17 35  1  0  0  0  0
 18 35  1  0  0  0  0
  8 36  1  0  0  0  0
 18 36  2  0  0  0  0
 23 37  2  0  0  0  0
 26 37  1  0  0  0  0
  9 38  1  0  0  0  0
 13 38  1  0  0  0  0
 33 38  2  0  0  0  0
 34 38  2  0  0  0  0
  7  6  1  6  0  0  0
M  END
> <ID>
SCHEMBL21135658

> <InChIKey>
OELDYSUODXKVII-DEOSSOPVSA-N

> <MW>
535.63

> <Series_Name>
Series_13

$$$$
SCHEMBL21135663
  Mrv1719007171901552D 0   0.00000     0.00000     0

 29 31  0  0  0  0              1 V2000 
    8.5803   -1.4218    0.0000 C   0  0  0  0  0  0  0  0  0  0  0  0
    0.0000   -2.2319    0.0000 C   0  0  0  0  0  0  0  0  0  0  0  0
    5.1747   -2.6369    0.0000 O   0  0  0  0  0  0  0  0  0  0  0  0
   10.0104   -3.8769    0.0000 F   0  0  0  0  0  0  0  0  0  0  0  0
    7.1475   -2.2044    0.0000 C   0  0  0  0  0  0  0  0  0  0  0  0
    7.1585   -1.4052    0.0000 C   0  0  0  0  0  0  0  0  0  0  0  0
    6.5138   -1.0250    0.0000 C   0  0  0  0  0  0  0  0  0  0  0  0
    5.7202   -1.3997    0.0000 C   0  0  0  0  0  0  0  0  0  0  0  0
    4.2984   -1.3997    0.0000 C   0  0  0  0  0  0  0  0  0  0  0  0
    4.2874   -2.2209    0.0000 C   0  0  0  0  0  0  0  0  0  0  0  0
    5.7202   -2.2153    0.0000 C   0  0  0  0  0  0  0  0  0  0  0  0
    6.4311   -2.6452    0.0000 C   0  0  0  0  0  0  0  0  0  0  0  0
    7.8695   -2.6396    0.0000 C   0  0  0  0  0  0  0  0  0  0  0  0
    8.5803   -2.2209    0.0000 C   0  0  0  0  0  0  0  0  0  0  0  0
    2.8601   -2.2209    0.0000 C   0  0  0  0  0  0  0  0  0  0  0  0
    0.6778   -2.6286    0.0000 C   0  0  0  0  0  0  0  0  0  0  0  0
    2.1657   -2.6286    0.0000 C   0  0  0  0  0  0  0  0  0  0  0  0
    7.8695   -3.4552    0.0000 C   0  0  0  0  0  0  0  0  0  0  0  0
    8.5803   -3.8851    0.0000 C   0  0  0  0  0  0  0  0  0  0  0  0
    9.2967   -3.4608    0.0000 C   0  0  0  0  0  0  0  0  0  0  0  0
    3.5613   -0.9920    0.0000 C   0  0  0  0  0  0  0  0  0  0  0  0
    3.5544   -0.1571    0.0000 O   0  0  0  0  0  0  0  0  0  0  0  0
    5.4061   -0.2728    0.0000 O   0  0  0  0  0  0  0  0  0  0  0  0
    4.5795   -0.2728    0.0000 O   0  0  0  0  0  0  0  0  0  0  0  0
    9.3160   -2.6369    0.0000 N   0  0  0  0  0  0  0  0  0  0  0  0
    3.5793   -2.6369    0.0000 N   0  0  0  0  0  0  0  0  0  0  0  0
    1.4218   -2.2236    0.0000 O   0  0  0  0  0  0  0  0  0  0  0  0
    2.8684   -1.3970    0.0000 N   0  0  0  0  0  0  0  0  0  0  0  0
    5.0093   -0.9837    0.0000 S   0  0  0  0  0  0  0  0  0  0  0  0
  5  6  1  0  0  0  0
  6  7  2  0  0  0  0
  7  8  1  0  0  0  0
  9 10  2  0  0  0  0
  3 10  1  0  0  0  0
  8 11  2  0  0  0  0
 11 12  1  0  0  0  0
  5 12  2  0  0  0  0
  5 13  1  0  0  0  0
  1 14  1  0  0  0  0
 13 14  1  0  0  0  0
  2 16  1  0  0  0  0
 15 17  1  0  0  0  0
 13 18  2  0  0  0  0
 18 19  1  0  0  0  0
 19 20  2  0  0  0  0
  4 20  1  0  0  0  0
  9 21  1  0  0  0  0
 21 22  2  0  0  0  0
 14 25  2  0  0  0  0
 20 25  1  0  0  0  0
 10 26  1  0  0  0  0
 15 26  1  0  0  0  0
 16 27  1  0  0  0  0
 17 27  1  0  0  0  0
 15 28  2  0  0  0  0
 21 28  1  0  0  0  0
  8 29  1  0  0  0  0
  9 29  1  0  0  0  0
 23 29  2  0  0  0  0
 24 29  2  0  0  0  0
M  END
> <ID>
SCHEMBL21135663

> <InChIKey>
FQOOQKFXCCPHIR-UHFFFAOYSA-N

> <MW>
419.43

> <Series_Name>
Series_13

$$$$
SCHEMBL21145634
  Mrv1719007181907422D 0   0.00000     0.00000     0

 31 33  0  0  0  0              1 V2000 
    5.2735   -5.6852    0.0000 C   0  0  0  0  0  0  0  0  0  0  0  0
    5.9479   -5.2616    0.0000 N   0  0  0  0  0  0  0  0  0  0  0  0
    5.2849   -6.5132    0.0000 C   0  0  0  0  0  0  0  0  0  0  0  0
    5.9915   -6.9376    0.0000 C   0  0  0  0  0  0  0  0  0  0  0  0
    6.6979   -6.5129    0.0000 C   0  0  0  0  0  0  0  0  0  0  0  0
    6.7054   -5.6856    0.0000 C   0  0  0  0  0  0  0  0  0  0  0  0
    6.5510   -7.5285    0.0000 F   0  0  0  0  0  0  0  0  0  0  0  0
    5.5528   -7.6533    0.0000 F   0  0  0  0  0  0  0  0  0  0  0  0
    5.2908   -4.0409    0.0000 C   0  0  0  0  0  0  0  0  0  0  0  0
    5.0328   -4.8249    0.0000 F   0  0  0  0  0  0  0  0  0  0  0  0
    4.4297   -4.0346    0.0000 F   0  0  0  0  0  0  0  0  0  0  0  0
    4.5415   -2.7678    0.0000 C   0  0  0  0  0  0  0  0  0  0  0  0
    5.2797   -3.1904    0.0000 C   0  0  0  0  0  0  0  0  0  0  0  0
    4.5468   -1.9428    0.0000 C   0  0  0  0  0  0  0  0  0  0  0  0
    3.9138   -1.5640    0.0000 C   0  0  0  0  0  0  0  0  0  0  0  0
    3.0779   -2.1940    0.0000 N   0  0  0  0  0  0  0  0  0  0  0  0
    3.8059   -0.6863    0.0000 O   0  0  0  0  0  0  0  0  0  0  0  0
    5.2862   -1.5439    0.0000 C   0  0  0  0  0  0  0  0  0  0  0  0
    5.9752   -1.9352    0.0000 C   0  0  0  0  0  0  0  0  0  0  0  0
    5.9853   -2.7822    0.0000 C   0  0  0  0  0  0  0  0  0  0  0  0
    6.6758   -3.2027    0.0000 F   0  0  0  0  0  0  0  0  0  0  0  0
    5.9205   -4.3881    0.0000 C   0  0  0  0  0  0  0  0  0  0  0  0
    6.6758   -4.0138    0.0000 O   0  0  0  0  0  0  0  0  0  0  0  0
    0.2495   -1.9459    0.0000 C   0  0  0  0  0  0  0  0  0  0  0  0
    0.9643   -1.5324    0.0000 C   0  0  0  0  0  0  0  0  0  0  0  0
    0.9619   -0.6990    0.0000 C   0  0  0  0  0  0  0  0  0  0  0  0
    0.2288   -0.2911    0.0000 F   0  0  0  0  0  0  0  0  0  0  0  0
    2.3990   -1.5317    0.0000 C   0  0  0  0  0  0  0  0  0  0  0  0
    2.3890   -0.7029    0.0000 C   0  0  0  0  0  0  0  0  0  0  0  0
    1.6710   -0.3073    0.0000 C   0  0  0  0  0  0  0  0  0  0  0  0
    1.6818   -1.9366    0.0000 C   0  0  0  0  0  0  0  0  0  0  0  0
  1  2  1  0  0  0  0
  1  3  1  0  0  0  0
  2  6  1  0  0  0  0
  2 22  1  0  0  0  0
  3  4  1  0  0  0  0
  4  7  1  0  0  0  0
  5  6  1  0  0  0  0
  5  4  1  0  0  0  0
  8  4  1  0  0  0  0
  9 10  1  0  0  0  0
  9 11  1  0  0  0  0
  9 22  1  0  0  0  0
 12 13  2  0  0  0  0
 12 14  1  0  0  0  0
 13  9  1  0  0  0  0
 14 18  2  0  0  0  0
 15 14  1  0  0  0  0
 15 16  1  0  0  0  0
 17 15  2  0  0  0  0
 18 19  1  0  0  0  0
 19 20  2  0  0  0  0
 20 21  1  0  0  0  0
 20 13  1  0  0  0  0
 22 23  2  0  0  0  0
 24 25  1  0  0  0  0
 25 31  2  0  0  0  0
 26 25  1  0  0  0  0
 26 30  2  0  0  0  0
 27 26  1  0  0  0  0
 28 16  1  0  0  0  0
 29 28  2  0  0  0  0
 30 29  1  0  0  0  0
 31 28  1  0  0  0  0
M  END
> <ID>
SCHEMBL21145634

> <InChIKey>
RJSQEZJQHQOJFT-UHFFFAOYSA-N

> <MW>
444.377

> <Series_Name>
Series_18

$$$$
SCHEMBL21145636
  Mrv1719007181907422D 0   0.00000     0.00000     0

 33 36  0  0  1  0              1 V2000 
    6.0143   -5.2840    0.0000 N   0  0  0  0  0  0  0  0  0  0  0  0
    5.3489   -5.7542    0.0000 C   0  0  2  0  0  0  0  0  0  0  0  0
    5.8186   -6.2748    0.0000 C   0  0  0  0  0  0  0  0  0  0  0  0
    6.4246   -6.2380    0.0000 C   0  0  0  0  0  0  0  0  0  0  0  0
    6.7132   -5.7287    0.0000 C   0  0  0  0  0  0  0  0  0  0  0  0
    6.7816   -6.5147    0.0000 C   0  0  0  0  0  0  0  0  0  0  0  0
    5.3517   -6.5352    0.0000 C   0  0  0  0  0  0  0  0  0  0  0  0
    6.0656   -6.9306    0.0000 C   0  0  1  0  0  0  0  0  0  0  0  0
    5.2820   -4.0593    0.0000 C   0  0  0  0  0  0  0  0  0  0  0  0
    6.0515   -4.5088    0.0000 C   0  0  0  0  0  0  0  0  0  0  0  0
    4.8759   -4.7471    0.0000 F   0  0  0  0  0  0  0  0  0  0  0  0
    4.4463   -4.0382    0.0000 F   0  0  0  0  0  0  0  0  0  0  0  0
    4.5821   -2.7865    0.0000 C   0  0  0  0  0  0  0  0  0  0  0  0
    5.3185   -3.2049    0.0000 C   0  0  0  0  0  0  0  0  0  0  0  0
    4.5835   -1.9564    0.0000 C   0  0  0  0  0  0  0  0  0  0  0  0
    3.8667   -1.5449    0.0000 C   0  0  0  0  0  0  0  0  0  0  0  0
    3.1145   -2.1910    0.0000 N   0  0  0  0  0  0  0  0  0  0  0  0
    3.8449   -0.7089    0.0000 O   0  0  0  0  0  0  0  0  0  0  0  0
    6.0304   -2.7881    0.0000 C   0  0  0  0  0  0  0  0  0  0  0  0
    6.7446   -3.2004    0.0000 F   0  0  0  0  0  0  0  0  0  0  0  0
    6.7232   -4.0382    0.0000 O   0  0  0  0  0  0  0  0  0  0  0  0
    5.3072   -1.5606    0.0000 C   0  0  0  0  0  0  0  0  0  0  0  0
    6.0114   -1.9523    0.0000 C   0  0  0  0  0  0  0  0  0  0  0  0
    0.2362   -0.3007    0.0000 F   0  0  0  0  0  0  0  0  0  0  0  0
    0.9787   -0.7097    0.0000 C   0  0  0  0  0  0  0  0  0  0  0  0
    1.6967   -0.2894    0.0000 C   0  0  0  0  0  0  0  0  0  0  0  0
    2.4135   -1.5391    0.0000 C   0  0  0  0  0  0  0  0  0  0  0  0
    0.9841   -1.5474    0.0000 C   0  0  0  0  0  0  0  0  0  0  0  0
    1.6999   -1.9449    0.0000 C   0  0  0  0  0  0  0  0  0  0  0  0
    0.2366   -1.9546    0.0000 C   0  0  0  0  0  0  0  0  0  0  0  0
    2.4031   -0.7077    0.0000 C   0  0  0  0  0  0  0  0  0  0  0  0
    6.0358   -7.7757    0.0000 O   0  0  0  0  0  0  0  0  0  0  0  0
    6.8104   -8.2111    0.0000 C   0  0  0  0  0  0  0  0  0  0  0  0
  1 10  1  0  0  0  0
  2  1  1  6  0  0  0
  2  3  1  0  0  0  0
  2  7  1  0  0  0  0
  4  3  1  0  0  0  0
  5  4  1  0  0  0  0
  5  1  1  0  0  0  0
  6  5  1  0  0  0  0
  8  7  1  0  0  0  0
  8 32  1  6  0  0  0
  8  6  1  0  0  0  0
  9 10  1  0  0  0  0
 10 21  2  0  0  0  0
 11  9  1  0  0  0  0
 12  9  1  0  0  0  0
 13 14  2  0  0  0  0
 13 15  1  0  0  0  0
 14  9  1  0  0  0  0
 15 22  2  0  0  0  0
 16 15  1  0  0  0  0
 16 17  1  0  0  0  0
 18 16  2  0  0  0  0
 19 20  1  0  0  0  0
 19 14  1  0  0  0  0
 22 23  1  0  0  0  0
 23 19  2  0  0  0  0
 24 25  1  0  0  0  0
 25 28  2  0  0  0  0
 26 25  1  0  0  0  0
 26 31  2  0  0  0  0
 27 17  1  0  0  0  0
 27 31  1  0  0  0  0
 28 29  1  0  0  0  0
 28 30  1  0  0  0  0
 29 27  2  0  0  0  0
 32 33  1  0  0  0  0
M  END
> <ID>
SCHEMBL21145636

> <InChIKey>
QTMKCNJDFAWRSO-GVYDCBATSA-N

> <MW>
464.461

> <Series_Name>
Series_18

$$$$
SCHEMBL21145806
  Mrv1719007181907462D 0   0.00000     0.00000     0

 30 32  0  0  0  0              1 V2000 
    5.2466   -6.4319    0.0000 C   0  0  0  0  0  0  0  0  0  0  0  0
    5.2453   -5.6136    0.0000 C   0  0  0  0  0  0  0  0  0  0  0  0
    5.9407   -5.2026    0.0000 N   0  0  0  0  0  0  0  0  0  0  0  0
    5.9645   -6.8443    0.0000 C   0  0  0  0  0  0  0  0  0  0  0  0
    6.6821   -5.6071    0.0000 C   0  0  0  0  0  0  0  0  0  0  0  0
    6.6856   -6.4435    0.0000 C   0  0  0  0  0  0  0  0  0  0  0  0
    6.1620   -7.6749    0.0000 O   0  0  0  0  0  0  0  0  0  0  0  0
    5.2437   -3.9719    0.0000 C   0  0  0  0  0  0  0  0  0  0  0  0
    5.9786   -4.4675    0.0000 C   0  0  0  0  0  0  0  0  0  0  0  0
    4.8337   -4.6861    0.0000 F   0  0  0  0  0  0  0  0  0  0  0  0
    4.4093   -3.9666    0.0000 F   0  0  0  0  0  0  0  0  0  0  0  0
    4.5316   -2.7356    0.0000 C   0  0  0  0  0  0  0  0  0  0  0  0
    5.2598   -3.1410    0.0000 C   0  0  0  0  0  0  0  0  0  0  0  0
    4.5275   -1.9144    0.0000 C   0  0  0  0  0  0  0  0  0  0  0  0
    3.7397   -1.5416    0.0000 C   0  0  0  0  0  0  0  0  0  0  0  0
    3.0810   -2.1586    0.0000 N   0  0  0  0  0  0  0  0  0  0  0  0
    3.8005   -0.6826    0.0000 O   0  0  0  0  0  0  0  0  0  0  0  0
    5.2441   -1.5261    0.0000 C   0  0  0  0  0  0  0  0  0  0  0  0
    5.9600   -1.9168    0.0000 C   0  0  0  0  0  0  0  0  0  0  0  0
    5.9637   -2.7369    0.0000 C   0  0  0  0  0  0  0  0  0  0  0  0
    6.6786   -3.1549    0.0000 F   0  0  0  0  0  0  0  0  0  0  0  0
    6.6786   -3.9666    0.0000 O   0  0  0  0  0  0  0  0  0  0  0  0
    0.2214   -1.9187    0.0000 F   0  0  0  0  0  0  0  0  0  0  0  0
    0.9530   -1.5114    0.0000 C   0  0  0  0  0  0  0  0  0  0  0  0
    0.9527   -0.6811    0.0000 C   0  0  0  0  0  0  0  0  0  0  0  0
    0.2214   -0.2767    0.0000 F   0  0  0  0  0  0  0  0  0  0  0  0
    1.6686   -0.2868    0.0000 C   0  0  0  0  0  0  0  0  0  0  0  0
    2.3868   -0.6814    0.0000 C   0  0  0  0  0  0  0  0  0  0  0  0
    2.3925   -1.5063    0.0000 C   0  0  0  0  0  0  0  0  0  0  0  0
    1.6708   -1.9080    0.0000 C   0  0  0  0  0  0  0  0  0  0  0  0
  1  2  1  0  0  0  0
  1  4  1  0  0  0  0
  2  3  1  0  0  0  0
  3  9  1  0  0  0  0
  5  3  1  0  0  0  0
  5  6  1  0  0  0  0
  6  4  1  0  0  0  0
  7  4  1  0  0  0  0
  8  9  1  0  0  0  0
  8 13  1  0  0  0  0
  9 22  2  0  0  0  0
 10  8  1  0  0  0  0
 11  8  1  0  0  0  0
 12 13  1  0  0  0  0
 13 20  2  0  0  0  0
 14 12  2  0  0  0  0
 14 15  1  0  0  0  0
 14 18  1  0  0  0  0
 15 17  2  0  0  0  0
 16 15  1  0  0  0  0
 18 19  2  0  0  0  0
 20 21  1  0  0  0  0
 20 19  1  0  0  0  0
 23 24  1  0  0  0  0
 24 30  2  0  0  0  0
 25 24  1  0  0  0  0
 25 27  2  0  0  0  0
 26 25  1  0  0  0  0
 27 28  1  0  0  0  0
 28 29  2  0  0  0  0
 29 16  1  0  0  0  0
 30 29  1  0  0  0  0
M  END
> <ID>
SCHEMBL21145806

> <InChIKey>
JBRBCXDSFJWTGP-UHFFFAOYSA-N

> <MW>
428.359

> <Series_Name>
Series_18

$$$$
SCHEMBL21145810
  Mrv1719007181907472D 0   0.00000     0.00000     0

 30 32  0  0  0  0              1 V2000 
    5.3019   -6.4519    0.0000 C   0  0  0  0  0  0  0  0  0  0  0  0
    5.2979   -5.6244    0.0000 C   0  0  0  0  0  0  0  0  0  0  0  0
    5.9775   -5.2194    0.0000 N   0  0  0  0  0  0  0  0  0  0  0  0
    6.0301   -6.8466    0.0000 C   0  0  0  0  0  0  0  0  0  0  0  0
    6.7110   -6.4375    0.0000 C   0  0  0  0  0  0  0  0  0  0  0  0
    6.7172   -5.6089    0.0000 C   0  0  0  0  0  0  0  0  0  0  0  0
    6.2265   -7.6667    0.0000 O   0  0  0  0  0  0  0  0  0  0  0  0
    4.8513   -4.6997    0.0000 F   0  0  0  0  0  0  0  0  0  0  0  0
    5.2406   -4.0153    0.0000 C   0  0  0  0  0  0  0  0  0  0  0  0
    4.4181   -3.9850    0.0000 F   0  0  0  0  0  0  0  0  0  0  0  0
    5.2710   -3.1670    0.0000 C   0  0  0  0  0  0  0  0  0  0  0  0
    4.5683   -2.7547    0.0000 C   0  0  0  0  0  0  0  0  0  0  0  0
    3.9016   -1.5515    0.0000 C   0  0  0  0  0  0  0  0  0  0  0  0
    4.5602   -1.9346    0.0000 C   0  0  0  0  0  0  0  0  0  0  0  0
    3.0970   -2.1873    0.0000 N   0  0  0  0  0  0  0  0  0  0  0  0
    3.8117   -0.7146    0.0000 O   0  0  0  0  0  0  0  0  0  0  0  0
    5.2746   -1.5251    0.0000 C   0  0  0  0  0  0  0  0  0  0  0  0
    5.9916   -1.9340    0.0000 C   0  0  0  0  0  0  0  0  0  0  0  0
    5.9957   -2.7541    0.0000 C   0  0  0  0  0  0  0  0  0  0  0  0
    6.8763   -3.1619    0.0000 N   0  0  0  0  0  0  0  0  0  0  0  0
    5.9749   -4.3914    0.0000 C   0  0  0  0  0  0  0  0  0  0  0  0
    0.9838   -0.7040    0.0000 C   0  0  0  0  0  0  0  0  0  0  0  0
    0.2382   -0.3032    0.0000 F   0  0  0  0  0  0  0  0  0  0  0  0
    1.7021   -0.3073    0.0000 C   0  0  0  0  0  0  0  0  0  0  0  0
    2.4053   -0.7121    0.0000 C   0  0  0  0  0  0  0  0  0  0  0  0
    2.4068   -1.5289    0.0000 C   0  0  0  0  0  0  0  0  0  0  0  0
    1.6746   -1.9172    0.0000 C   0  0  0  0  0  0  0  0  0  0  0  0
    0.9811   -1.5318    0.0000 C   0  0  0  0  0  0  0  0  0  0  0  0
    0.2568   -1.9477    0.0000 C   0  0  0  0  0  0  0  0  0  0  0  0
    6.6705   -3.9850    0.0000 O   0  0  0  0  0  0  0  0  0  0  0  0
  1  2  1  0  0  0  0
  1  4  1  0  0  0  0
  2  3  1  0  0  0  0
  3 21  1  0  0  0  0
  4  5  1  0  0  0  0
  5  6  1  0  0  0  0
  6  3  1  0  0  0  0
  7  4  1  0  0  0  0
  8  9  1  0  0  0  0
  9 21  1  0  0  0  0
 10  9  1  0  0  0  0
 11  9  1  0  0  0  0
 12 11  2  0  0  0  0
 12 14  1  0  0  0  0
 13 14  1  0  0  0  0
 13 15  1  0  0  0  0
 14 17  2  0  0  0  0
 16 13  2  0  0  0  0
 17 18  1  0  0  0  0
 18 19  2  0  0  0  0
 19 20  1  0  0  0  0
 19 11  1  0  0  0  0
 21 30  2  0  0  0  0
 22 23  1  0  0  0  0
 22 24  1  0  0  0  0
 24 25  2  0  0  0  0
 26 15  1  0  0  0  0
 26 25  1  0  0  0  0
 27 26  2  0  0  0  0
 27 28  1  0  0  0  0
 28 22  2  0  0  0  0
 29 28  1  0  0  0  0
M  END
> <ID>
SCHEMBL21145810

> <InChIKey>
MNIRETRPBKTJIW-UHFFFAOYSA-N

> <MW>
421.42

> <Series_Name>
Series_18

$$$$
SCHEMBL21145822
  Mrv1719007181907472D 0   0.00000     0.00000     0

 33 35  0  0  0  0              1 V2000 
    5.3280   -7.6289    0.0000 O   0  0  0  0  0  0  0  0  0  0  0  0
    5.9920   -6.9223    0.0000 C   0  0  0  0  0  0  0  0  0  0  0  0
    5.2629   -6.4991    0.0000 C   0  0  0  0  0  0  0  0  0  0  0  0
    5.2615   -5.6868    0.0000 C   0  0  0  0  0  0  0  0  0  0  0  0
    5.9723   -5.2769    0.0000 N   0  0  0  0  0  0  0  0  0  0  0  0
    6.7117   -6.5016    0.0000 C   0  0  0  0  0  0  0  0  0  0  0  0
    6.7066   -5.6811    0.0000 C   0  0  0  0  0  0  0  0  0  0  0  0
    6.4438   -7.2312    0.0000 C   0  0  0  0  0  0  0  0  0  0  0  0
    6.4022   -7.7769    0.0000 O   0  0  0  0  0  0  0  0  0  0  0  0
    6.9373   -6.9944    0.0000 N   0  0  0  0  0  0  0  0  0  0  0  0
    5.2538   -3.9892    0.0000 C   0  0  0  0  0  0  0  0  0  0  0  0
    6.0123   -4.4311    0.0000 C   0  0  0  0  0  0  0  0  0  0  0  0
    4.8269   -4.7041    0.0000 F   0  0  0  0  0  0  0  0  0  0  0  0
    4.4178   -3.9884    0.0000 F   0  0  0  0  0  0  0  0  0  0  0  0
    4.5459   -2.7542    0.0000 C   0  0  0  0  0  0  0  0  0  0  0  0
    5.2647   -3.1650    0.0000 C   0  0  0  0  0  0  0  0  0  0  0  0
    4.5472   -1.9297    0.0000 C   0  0  0  0  0  0  0  0  0  0  0  0
    3.8535   -1.5338    0.0000 C   0  0  0  0  0  0  0  0  0  0  0  0
    3.0883   -2.1680    0.0000 N   0  0  0  0  0  0  0  0  0  0  0  0
    5.2616   -1.5239    0.0000 C   0  0  0  0  0  0  0  0  0  0  0  0
    5.9863   -1.9278    0.0000 C   0  0  0  0  0  0  0  0  0  0  0  0
    5.9855   -2.7533    0.0000 C   0  0  0  0  0  0  0  0  0  0  0  0
    6.6881   -3.1702    0.0000 F   0  0  0  0  0  0  0  0  0  0  0  0
    6.6677   -3.9884    0.0000 O   0  0  0  0  0  0  0  0  0  0  0  0
    0.9455   -0.6927    0.0000 C   0  0  0  0  0  0  0  0  0  0  0  0
    0.9518   -1.5202    0.0000 C   0  0  0  0  0  0  0  0  0  0  0  0
    0.2250   -0.2863    0.0000 F   0  0  0  0  0  0  0  0  0  0  0  0
    1.6863   -0.3029    0.0000 C   0  0  0  0  0  0  0  0  0  0  0  0
    2.3687   -0.6868    0.0000 C   0  0  0  0  0  0  0  0  0  0  0  0
    2.3865   -1.5239    0.0000 C   0  0  0  0  0  0  0  0  0  0  0  0
    1.6750   -1.9080    0.0000 C   0  0  0  0  0  0  0  0  0  0  0  0
    0.2485   -1.9341    0.0000 C   0  0  0  0  0  0  0  0  0  0  0  0
    3.8042   -0.6954    0.0000 O   0  0  0  0  0  0  0  0  0  0  0  0
  1  2  1  0  0  0  0
  2  3  1  0  0  0  0
  2  6  1  0  0  0  0
  2  8  1  0  0  0  0
  3  4  1  0  0  0  0
  4  5  1  0  0  0  0
  5 12  1  0  0  0  0
  6  7  1  0  0  0  0
  7  5  1  0  0  0  0
  8  9  2  0  0  0  0
  8 10  1  0  0  0  0
 11 12  1  0  0  0  0
 11 13  1  0  0  0  0
 11 16  1  0  0  0  0
 12 24  2  0  0  0  0
 14 11  1  0  0  0  0
 15 16  1  0  0  0  0
 15 17  2  0  0  0  0
 16 22  2  0  0  0  0
 17 20  1  0  0  0  0
 18 17  1  0  0  0  0
 18 19  1  0  0  0  0
 20 21  2  0  0  0  0
 22 21  1  0  0  0  0
 22 23  1  0  0  0  0
 25 26  1  0  0  0  0
 25 28  2  0  0  0  0
 26 31  2  0  0  0  0
 27 25  1  0  0  0  0
 28 29  1  0  0  0  0
 29 30  2  0  0  0  0
 30 19  1  0  0  0  0
 31 30  1  0  0  0  0
 32 26  1  0  0  0  0
 33 18  2  0  0  0  0
M  END
> <ID>
SCHEMBL21145822

> <InChIKey>
KASAETOBBFESDU-UHFFFAOYSA-N

> <MW>
467.421

> <Series_Name>
Series_18

$$$$
SCHEMBL21145823
  Mrv1719007181907472D 0   0.00000     0.00000     0

 32 35  0  0  1  0              1 V2000 
    5.9719   -6.6630    0.0000 C   0  0  1  0  0  0  0  0  0  0  0  0
    5.1767   -6.3927    0.0000 C   0  0  2  0  0  0  0  0  0  0  0  0
    4.8780   -5.6426    0.0000 C   0  0  0  0  0  0  0  0  0  0  0  0
    5.2912   -4.9266    0.0000 C   0  0  0  0  0  0  0  0  0  0  0  0
    6.2587   -4.8029    0.0000 C   0  0  0  0  0  0  0  0  0  0  0  0
    5.8952   -5.5818    0.0000 N   0  0  0  0  0  0  0  0  0  0  0  0
    6.6403   -6.1954    0.0000 C   0  0  0  0  0  0  0  0  0  0  0  0
    6.7987   -5.3803    0.0000 C   0  0  1  0  0  0  0  0  0  0  0  0
    6.2869   -7.4718    0.0000 O   0  0  0  0  0  0  0  0  0  0  0  0
    5.1687   -3.9894    0.0000 C   0  0  0  0  0  0  0  0  0  0  0  0
    5.9311   -4.4399    0.0000 C   0  0  0  0  0  0  0  0  0  0  0  0
    4.4067   -3.7996    0.0000 F   0  0  0  0  0  0  0  0  0  0  0  0
    4.4864   -1.9391    0.0000 C   0  0  0  0  0  0  0  0  0  0  0  0
    4.5009   -2.7586    0.0000 C   0  0  0  0  0  0  0  0  0  0  0  0
    3.7196   -1.5563    0.0000 C   0  0  0  0  0  0  0  0  0  0  0  0
    3.0553   -2.1837    0.0000 N   0  0  0  0  0  0  0  0  0  0  0  0
    3.7604   -0.7050    0.0000 O   0  0  0  0  0  0  0  0  0  0  0  0
    5.2156   -1.5380    0.0000 C   0  0  0  0  0  0  0  0  0  0  0  0
    5.9211   -1.9347    0.0000 C   0  0  0  0  0  0  0  0  0  0  0  0
    5.9163   -2.7643    0.0000 C   0  0  0  0  0  0  0  0  0  0  0  0
    6.6199   -3.1728    0.0000 F   0  0  0  0  0  0  0  0  0  0  0  0
    5.2026   -3.1617    0.0000 C   0  0  0  0  0  0  0  0  0  0  0  0
    6.6199   -4.0150    0.0000 O   0  0  0  0  0  0  0  0  0  0  0  0
    0.2154   -0.2937    0.0000 F   0  0  0  0  0  0  0  0  0  0  0  0
    0.9509   -0.7061    0.0000 C   0  0  0  0  0  0  0  0  0  0  0  0
    1.6662   -0.3065    0.0000 C   0  0  0  0  0  0  0  0  0  0  0  0
    2.3514   -1.5301    0.0000 C   0  0  0  0  0  0  0  0  0  0  0  0
    0.9587   -1.5294    0.0000 C   0  0  0  0  0  0  0  0  0  0  0  0
    0.2056   -1.9359    0.0000 C   0  0  0  0  0  0  0  0  0  0  0  0
    2.3478   -0.7015    0.0000 C   0  0  0  0  0  0  0  0  0  0  0  0
    1.6622   -1.9257    0.0000 C   0  0  0  0  0  0  0  0  0  0  0  0
    4.6222   -4.5829    0.0000 F   0  0  0  0  0  0  0  0  0  0  0  0
  1  2  1  0  0  0  0
  1  9  1  1  0  0  0
  2  3  1  0  0  0  0
  2  6  1  1  0  0  0
  3  4  1  0  0  0  0
  4  5  1  0  0  0  0
  8  5  1  0  0  0  0
  6 11  1  0  0  0  0
  1  7  1  0  0  0  0
  8  7  1  0  0  0  0
  8  6  1  1  0  0  0
 10 11  1  0  0  0  0
 10 12  1  0  0  0  0
 10 32  1  0  0  0  0
 10 22  1  0  0  0  0
 11 23  2  0  0  0  0
 13 14  2  0  0  0  0
 13 15  1  0  0  0  0
 13 18  1  0  0  0  0
 14 22  1  0  0  0  0
 15 17  2  0  0  0  0
 16 15  1  0  0  0  0
 18 19  2  0  0  0  0
 20 21  1  0  0  0  0
 20 19  1  0  0  0  0
 22 20  2  0  0  0  0
 24 25  1  0  0  0  0
 25 28  2  0  0  0  0
 26 25  1  0  0  0  0
 26 30  2  0  0  0  0
 27 16  1  0  0  0  0
 27 30  1  0  0  0  0
 28 29  1  0  0  0  0
 28 31  1  0  0  0  0
 31 27  2  0  0  0  0
M  END
> <ID>
SCHEMBL21145823

> <InChIKey>
SSTMFHZNHAQWSG-UIAACRFSSA-N

> <MW>
450.434

> <Series_Name>
Series_18

$$$$
SCHEMBL21145824
  Mrv1719007181907472D 0   0.00000     0.00000     0

 33 36  0  0  1  0              1 V2000 
    5.9344   -6.9882    0.0000 C   0  0  2  0  0  0  0  0  0  0  0  0
    5.2193   -6.5658    0.0000 C   0  0  0  0  0  0  0  0  0  0  0  0
    5.2303   -5.7546    0.0000 C   0  0  2  0  0  0  0  0  0  0  0  0
    5.9130   -5.3237    0.0000 N   0  0  0  0  0  0  0  0  0  0  0  0
    5.6326   -6.4769    0.0000 C   0  0  0  0  0  0  0  0  0  0  0  0
    5.9045   -5.8374    0.0000 C   0  0  0  0  0  0  0  0  0  0  0  0
    6.2887   -6.4459    0.0000 C   0  0  0  0  0  0  0  0  0  0  0  0
    6.5889   -5.8519    0.0000 C   0  0  1  0  0  0  0  0  0  0  0  0
    6.1390   -7.8382    0.0000 O   0  0  0  0  0  0  0  0  0  0  0  0
    6.6435   -6.5775    0.0000 C   0  0  0  0  0  0  0  0  0  0  0  0
    5.1973   -4.0680    0.0000 C   0  0  0  0  0  0  0  0  0  0  0  0
    5.9634   -4.5492    0.0000 C   0  0  0  0  0  0  0  0  0  0  0  0
    4.4200   -3.8503    0.0000 F   0  0  0  0  0  0  0  0  0  0  0  0
    4.5118   -2.8066    0.0000 C   0  0  0  0  0  0  0  0  0  0  0  0
    5.2074   -3.2195    0.0000 C   0  0  0  0  0  0  0  0  0  0  0  0
    4.5060   -1.9620    0.0000 C   0  0  0  0  0  0  0  0  0  0  0  0
    3.7232   -1.5772    0.0000 C   0  0  0  0  0  0  0  0  0  0  0  0
    3.0645   -2.2100    0.0000 N   0  0  0  0  0  0  0  0  0  0  0  0
    3.7914   -0.7268    0.0000 O   0  0  0  0  0  0  0  0  0  0  0  0
    5.2292   -1.5663    0.0000 C   0  0  0  0  0  0  0  0  0  0  0  0
    5.9400   -1.9591    0.0000 C   0  0  0  0  0  0  0  0  0  0  0  0
    5.9467   -2.8051    0.0000 C   0  0  0  0  0  0  0  0  0  0  0  0
    6.6399   -3.2217    0.0000 F   0  0  0  0  0  0  0  0  0  0  0  0
    6.6399   -4.0664    0.0000 O   0  0  0  0  0  0  0  0  0  0  0  0
    0.9543   -0.7125    0.0000 C   0  0  0  0  0  0  0  0  0  0  0  0
    0.2161   -0.2946    0.0000 F   0  0  0  0  0  0  0  0  0  0  0  0
    1.6678   -0.2983    0.0000 C   0  0  0  0  0  0  0  0  0  0  0  0
    2.3637   -0.7036    0.0000 C   0  0  0  0  0  0  0  0  0  0  0  0
    2.3590   -1.5510    0.0000 C   0  0  0  0  0  0  0  0  0  0  0  0
    0.9532   -1.5511    0.0000 C   0  0  0  0  0  0  0  0  0  0  0  0
    1.6706   -1.9545    0.0000 C   0  0  0  0  0  0  0  0  0  0  0  0
    0.2347   -1.9640    0.0000 C   0  0  0  0  0  0  0  0  0  0  0  0
    4.6361   -4.6558    0.0000 F   0  0  0  0  0  0  0  0  0  0  0  0
  1  2  1  0  0  0  0
  1  9  1  1  0  0  0
  1 10  1  0  0  0  0
  3  4  1  6  0  0  0
  3  5  1  0  0  0  0
  3  2  1  0  0  0  0
  4 12  1  0  0  0  0
  5  6  1  0  0  0  0
  6  7  1  0  0  0  0
  8  4  1  6  0  0  0
  8  7  1  0  0  0  0
  8 10  1  0  0  0  0
 11 12  1  0  0  0  0
 11 13  1  0  0  0  0
 11 33  1  0  0  0  0
 11 15  1  0  0  0  0
 12 24  2  0  0  0  0
 14 15  1  0  0  0  0
 15 22  2  0  0  0  0
 16 14  2  0  0  0  0
 16 17  1  0  0  0  0
 16 20  1  0  0  0  0
 17 19  2  0  0  0  0
 18 17  1  0  0  0  0
 20 21  2  0  0  0  0
 22 21  1  0  0  0  0
 22 23  1  0  0  0  0
 25 26  1  0  0  0  0
 25 27  1  0  0  0  0
 27 28  2  0  0  0  0
 29 18  1  0  0  0  0
 29 28  1  0  0  0  0
 30 31  1  0  0  0  0
 30 25  2  0  0  0  0
 31 29  2  0  0  0  0
 32 30  1  0  0  0  0
M  END
> <ID>
SCHEMBL21145824

> <InChIKey>
UIRVQVBUAQZKSV-PIIMJCKOSA-N

> <MW>
464.461

> <Series_Name>
Series_18

$$$$
SCHEMBL21145826
  Mrv1719007181907482D 0   0.00000     0.00000     0

 31 33  0  0  0  0              1 V2000 
    5.2246   -6.4632    0.0000 C   0  0  0  0  0  0  0  0  0  0  0  0
    5.2212   -5.6331    0.0000 C   0  0  0  0  0  0  0  0  0  0  0  0
    5.8932   -5.2281    0.0000 N   0  0  0  0  0  0  0  0  0  0  0  0
    5.9344   -6.9100    0.0000 C   0  0  0  0  0  0  0  0  0  0  0  0
    6.6453   -5.6383    0.0000 C   0  0  0  0  0  0  0  0  0  0  0  0
    6.6390   -6.4680    0.0000 C   0  0  0  0  0  0  0  0  0  0  0  0
    6.5306   -7.5927    0.0000 O   0  0  0  0  0  0  0  0  0  0  0  0
    5.5021   -7.6020    0.0000 C   0  0  0  0  0  0  0  0  0  0  0  0
    5.2247   -4.0091    0.0000 C   0  0  0  0  0  0  0  0  0  0  0  0
    5.9231   -4.4228    0.0000 C   0  0  0  0  0  0  0  0  0  0  0  0
    4.8032   -4.7109    0.0000 F   0  0  0  0  0  0  0  0  0  0  0  0
    4.3783   -3.9904    0.0000 F   0  0  0  0  0  0  0  0  0  0  0  0
    4.5007   -2.7583    0.0000 C   0  0  0  0  0  0  0  0  0  0  0  0
    5.2171   -3.1724    0.0000 C   0  0  0  0  0  0  0  0  0  0  0  0
    4.4975   -1.9313    0.0000 C   0  0  0  0  0  0  0  0  0  0  0  0
    3.8620   -1.5552    0.0000 C   0  0  0  0  0  0  0  0  0  0  0  0
    3.0574   -2.1799    0.0000 N   0  0  0  0  0  0  0  0  0  0  0  0
    3.7686   -0.7020    0.0000 O   0  0  0  0  0  0  0  0  0  0  0  0
    5.2047   -1.5435    0.0000 C   0  0  0  0  0  0  0  0  0  0  0  0
    5.9223   -1.9272    0.0000 C   0  0  0  0  0  0  0  0  0  0  0  0
    5.9201   -2.7583    0.0000 C   0  0  0  0  0  0  0  0  0  0  0  0
    6.6321   -3.1775    0.0000 F   0  0  0  0  0  0  0  0  0  0  0  0
    6.6137   -3.9904    0.0000 O   0  0  0  0  0  0  0  0  0  0  0  0
    0.9424   -0.6993    0.0000 C   0  0  0  0  0  0  0  0  0  0  0  0
    0.9537   -1.5284    0.0000 C   0  0  0  0  0  0  0  0  0  0  0  0
    0.2217   -0.2956    0.0000 F   0  0  0  0  0  0  0  0  0  0  0  0
    1.6530   -0.3074    0.0000 C   0  0  0  0  0  0  0  0  0  0  0  0
    2.3730   -1.5271    0.0000 C   0  0  0  0  0  0  0  0  0  0  0  0
    1.6647   -1.9384    0.0000 C   0  0  0  0  0  0  0  0  0  0  0  0
    0.2402   -1.9405    0.0000 C   0  0  0  0  0  0  0  0  0  0  0  0
    2.3623   -0.6999    0.0000 C   0  0  0  0  0  0  0  0  0  0  0  0
  1  2  1  0  0  0  0
  1  4  1  0  0  0  0
  2  3  1  0  0  0  0
  3  5  1  0  0  0  0
  3 10  1  0  0  0  0
  5  6  1  0  0  0  0
  6  4  1  0  0  0  0
  7  4  1  0  0  0  0
  8  4  1  0  0  0  0
  9 10  1  0  0  0  0
  9 11  1  0  0  0  0
  9 14  1  0  0  0  0
 10 23  2  0  0  0  0
 12  9  1  0  0  0  0
 13 14  1  0  0  0  0
 14 21  2  0  0  0  0
 15 13  2  0  0  0  0
 15 19  1  0  0  0  0
 16 15  1  0  0  0  0
 16 17  1  0  0  0  0
 18 16  2  0  0  0  0
 19 20  2  0  0  0  0
 21 22  1  0  0  0  0
 21 20  1  0  0  0  0
 24 25  1  0  0  0  0
 24 27  2  0  0  0  0
 25 29  2  0  0  0  0
 26 24  1  0  0  0  0
 27 31  1  0  0  0  0
 28 17  1  0  0  0  0
 28 29  1  0  0  0  0
 30 25  1  0  0  0  0
 31 28  2  0  0  0  0
M  END
> <ID>
SCHEMBL21145826

> <InChIKey>
CBNHQBYECBXTIN-UHFFFAOYSA-N

> <MW>
438.423

> <Series_Name>
Series_18

$$$$
SCHEMBL21145840
  Mrv1719007181907482D 0   0.00000     0.00000     0

 33 36  0  0  1  0              1 V2000 
    5.3181   -6.6692    0.0000 C   0  0  2  0  0  0  0  0  0  0  0  0
    5.9462   -6.1282    0.0000 N   0  0  0  0  0  0  0  0  0  0  0  0
    6.2350   -7.2275    0.0000 C   0  0  0  0  0  0  0  0  0  0  0  0
    5.6252   -7.2107    0.0000 C   0  0  0  0  0  0  0  0  0  0  0  0
    6.6804   -6.5739    0.0000 C   0  0  1  0  0  0  0  0  0  0  0  0
    6.6907   -7.3744    0.0000 C   0  0  0  0  0  0  0  0  0  0  0  0
    5.9563   -7.7661    0.0000 C   0  0  1  0  0  0  0  0  0  0  0  0
    5.2610   -7.3640    0.0000 C   0  0  0  0  0  0  0  0  0  0  0  0
    5.2499   -4.8710    0.0000 C   0  0  0  0  0  0  0  0  0  0  0  0
    5.9677   -5.3828    0.0000 C   0  0  0  0  0  0  0  0  0  0  0  0
    4.8136   -5.6023    0.0000 F   0  0  0  0  0  0  0  0  0  0  0  0
    4.4090   -4.8743    0.0000 F   0  0  0  0  0  0  0  0  0  0  0  0
    4.5430   -3.6204    0.0000 C   0  0  0  0  0  0  0  0  0  0  0  0
    5.2509   -4.0379    0.0000 C   0  0  0  0  0  0  0  0  0  0  0  0
    3.7835   -2.3991    0.0000 C   0  0  0  0  0  0  0  0  0  0  0  0
    4.5416   -2.7921    0.0000 C   0  0  0  0  0  0  0  0  0  0  0  0
    5.2542   -2.3753    0.0000 C   0  0  0  0  0  0  0  0  0  0  0  0
    5.9551   -3.6257    0.0000 C   0  0  0  0  0  0  0  0  0  0  0  0
    6.6742   -4.0450    0.0000 F   0  0  0  0  0  0  0  0  0  0  0  0
    6.6541   -4.8743    0.0000 O   0  0  0  0  0  0  0  0  0  0  0  0
    5.9433   -2.7838    0.0000 C   0  0  0  0  0  0  0  0  0  0  0  0
    0.2225   -2.7911    0.0000 F   0  0  0  0  0  0  0  0  0  0  0  0
    0.9579   -2.3821    0.0000 C   0  0  0  0  0  0  0  0  0  0  0  0
    0.9585   -1.5472    0.0000 C   0  0  0  0  0  0  0  0  0  0  0  0
    0.2225   -1.1326    0.0000 F   0  0  0  0  0  0  0  0  0  0  0  0
    1.6711   -1.1316    0.0000 C   0  0  0  0  0  0  0  0  0  0  0  0
    1.6584   -0.3034    0.0000 F   0  0  0  0  0  0  0  0  0  0  0  0
    2.3727   -1.5331    0.0000 C   0  0  0  0  0  0  0  0  0  0  0  0
    2.3830   -2.3824    0.0000 C   0  0  0  0  0  0  0  0  0  0  0  0
    3.0742   -3.0338    0.0000 N   0  0  0  0  0  0  0  0  0  0  0  0
    1.6687   -2.7863    0.0000 C   0  0  0  0  0  0  0  0  0  0  0  0
    3.7821   -1.5573    0.0000 O   0  0  0  0  0  0  0  0  0  0  0  0
    5.9462   -8.6160    0.0000 O   0  0  0  0  0  0  0  0  0  0  0  0
  1  2  1  6  0  0  0
  1  4  1  0  0  0  0
  1  8  1  0  0  0  0
  5  2  1  6  0  0  0
  2 10  1  0  0  0  0
  3  4  1  0  0  0  0
  5  3  1  0  0  0  0
  5  6  1  0  0  0  0
  7  6  1  0  0  0  0
  7 33  1  6  0  0  0
  7  8  1  0  0  0  0
  9 10  1  0  0  0  0
  9 11  1  0  0  0  0
  9 14  1  0  0  0  0
 10 20  2  0  0  0  0
 12  9  1  0  0  0  0
 13 14  1  0  0  0  0
 14 18  2  0  0  0  0
 15 16  1  0  0  0  0
 15 30  1  0  0  0  0
 16 13  2  0  0  0  0
 17 16  1  0  0  0  0
 17 21  2  0  0  0  0
 18 19  1  0  0  0  0
 18 21  1  0  0  0  0
 22 23  1  0  0  0  0
 23 24  1  0  0  0  0
 23 31  2  0  0  0  0
 24 26  2  0  0  0  0
 25 24  1  0  0  0  0
 26 27  1  0  0  0  0
 26 28  1  0  0  0  0
 28 29  2  0  0  0  0
 29 30  1  0  0  0  0
 29 31  1  0  0  0  0
 32 15  2  0  0  0  0
M  END
> <ID>
SCHEMBL21145840

> <InChIKey>
UECQSWTXALSGNI-BTTYYORXSA-N

> <MW>
472.387

> <Series_Name>
Series_18

$$$$
SCHEMBL21145841
  Mrv1719007181907482D 0   0.00000     0.00000     0

 32 34  0  0  0  0              1 V2000 
    6.2993   -6.8732    0.0000 C   0  0  0  0  0  0  0  0  0  0  0  0
    5.6321   -7.5718    0.0000 O   0  0  0  0  0  0  0  0  0  0  0  0
    5.5693   -6.4396    0.0000 C   0  0  0  0  0  0  0  0  0  0  0  0
    5.5657   -5.6277    0.0000 C   0  0  0  0  0  0  0  0  0  0  0  0
    6.2623   -5.2185    0.0000 N   0  0  0  0  0  0  0  0  0  0  0  0
    6.9987   -6.4521    0.0000 C   0  0  0  0  0  0  0  0  0  0  0  0
    7.0026   -5.6180    0.0000 C   0  0  0  0  0  0  0  0  0  0  0  0
    6.7028   -7.5736    0.0000 C   0  0  0  0  0  0  0  0  0  0  0  0
    7.7195   -7.5817    0.0000 O   0  0  0  0  0  0  0  0  0  0  0  0
    5.5603   -4.0053    0.0000 C   0  0  0  0  0  0  0  0  0  0  0  0
    6.3039   -4.4801    0.0000 C   0  0  0  0  0  0  0  0  0  0  0  0
    5.1398   -4.7066    0.0000 F   0  0  0  0  0  0  0  0  0  0  0  0
    4.7263   -3.9976    0.0000 F   0  0  0  0  0  0  0  0  0  0  0  0
    5.5616   -3.1644    0.0000 C   0  0  0  0  0  0  0  0  0  0  0  0
    4.8567   -2.7589    0.0000 C   0  0  0  0  0  0  0  0  0  0  0  0
    4.8483   -1.9301    0.0000 C   0  0  0  0  0  0  0  0  0  0  0  0
    4.2241   -1.5607    0.0000 C   0  0  0  0  0  0  0  0  0  0  0  0
    3.4068   -2.1859    0.0000 N   0  0  0  0  0  0  0  0  0  0  0  0
    4.1158   -0.7089    0.0000 O   0  0  0  0  0  0  0  0  0  0  0  0
    5.5752   -1.5207    0.0000 C   0  0  0  0  0  0  0  0  0  0  0  0
    6.2893   -1.9281    0.0000 C   0  0  0  0  0  0  0  0  0  0  0  0
    6.2951   -2.7571    0.0000 C   0  0  0  0  0  0  0  0  0  0  0  0
    6.9909   -3.1705    0.0000 F   0  0  0  0  0  0  0  0  0  0  0  0
    6.9712   -3.9976    0.0000 O   0  0  0  0  0  0  0  0  0  0  0  0
    0.3876   -1.9816    0.0000 Br  0  0  0  0  0  0  0  0  0  0  0  0
    1.2728   -1.5302    0.0000 C   0  0  0  0  0  0  0  0  0  0  0  0
    1.2629   -0.7053    0.0000 C   0  0  0  0  0  0  0  0  0  0  0  0
    0.5317   -0.2954    0.0000 F   0  0  0  0  0  0  0  0  0  0  0  0
    1.9943   -0.2954    0.0000 C   0  0  0  0  0  0  0  0  0  0  0  0
    2.6991   -0.7062    0.0000 C   0  0  0  0  0  0  0  0  0  0  0  0
    2.7009   -1.5280    0.0000 C   0  0  0  0  0  0  0  0  0  0  0  0
    1.9829   -1.9293    0.0000 C   0  0  0  0  0  0  0  0  0  0  0  0
  1  2  1  0  0  0  0
  1  6  1  0  0  0  0
  1  8  1  0  0  0  0
  3  4  1  0  0  0  0
  3  1  1  0  0  0  0
  4  5  1  0  0  0  0
  5 11  1  0  0  0  0
  7  5  1  0  0  0  0
  7  6  1  0  0  0  0
  9  8  1  0  0  0  0
 10 11  1  0  0  0  0
 10 12  1  0  0  0  0
 10 14  1  0  0  0  0
 11 24  2  0  0  0  0
 13 10  1  0  0  0  0
 14 22  2  0  0  0  0
 15 14  1  0  0  0  0
 16 15  2  0  0  0  0
 16 20  1  0  0  0  0
 17 16  1  0  0  0  0
 17 18  1  0  0  0  0
 19 17  2  0  0  0  0
 20 21  2  0  0  0  0
 22 21  1  0  0  0  0
 22 23  1  0  0  0  0
 25 26  1  0  0  0  0
 26 32  2  0  0  0  0
 27 26  1  0  0  0  0
 27 29  2  0  0  0  0
 28 27  1  0  0  0  0
 29 30  1  0  0  0  0
 30 31  2  0  0  0  0
 31 18  1  0  0  0  0
 31 32  1  0  0  0  0
M  END
> <ID>
SCHEMBL21145841

> <InChIKey>
HOBOTJOYDLITDF-UHFFFAOYSA-N

> <MW>
519.291

> <Series_Name>
Series_18

$$$$
SCHEMBL21145848
  Mrv1719007181907482D 0   0.00000     0.00000     0

 34 37  0  0  1  0              1 V2000 
    5.2969   -8.1961    0.0000 O   0  0  0  0  0  0  0  0  0  0  0  0
    6.0185   -7.7439    0.0000 C   0  0  0  0  0  0  0  0  0  0  0  0
    5.2853   -6.5165    0.0000 C   0  0  0  0  0  0  0  0  0  0  0  0
    5.3093   -5.7260    0.0000 C   0  0  2  0  0  0  0  0  0  0  0  0
    5.9508   -5.2751    0.0000 N   0  0  0  0  0  0  0  0  0  0  0  0
    5.7523   -6.2533    0.0000 C   0  0  0  0  0  0  0  0  0  0  0  0
    6.3674   -6.2126    0.0000 C   0  0  0  0  0  0  0  0  0  0  0  0
    6.6644   -5.7307    0.0000 C   0  0  0  0  0  0  0  0  0  0  0  0
    6.7232   -6.5067    0.0000 C   0  0  0  0  0  0  0  0  0  0  0  0
    6.0079   -6.9147    0.0000 C   0  0  2  0  0  0  0  0  0  0  0  0
    5.2526   -4.0334    0.0000 C   0  0  0  0  0  0  0  0  0  0  0  0
    5.9766   -4.4590    0.0000 C   0  0  0  0  0  0  0  0  0  0  0  0
    4.8392   -4.7520    0.0000 F   0  0  0  0  0  0  0  0  0  0  0  0
    4.4250   -4.0326    0.0000 F   0  0  0  0  0  0  0  0  0  0  0  0
    5.2615   -3.1990    0.0000 C   0  0  0  0  0  0  0  0  0  0  0  0
    3.8981   -1.5659    0.0000 C   0  0  0  0  0  0  0  0  0  0  0  0
    4.5541   -1.9586    0.0000 C   0  0  0  0  0  0  0  0  0  0  0  0
    3.0953   -2.2016    0.0000 N   0  0  0  0  0  0  0  0  0  0  0  0
    3.8147   -0.7194    0.0000 O   0  0  0  0  0  0  0  0  0  0  0  0
    5.2443   -1.5589    0.0000 C   0  0  0  0  0  0  0  0  0  0  0  0
    5.9635   -1.9473    0.0000 C   0  0  0  0  0  0  0  0  0  0  0  0
    5.9643   -2.7889    0.0000 C   0  0  0  0  0  0  0  0  0  0  0  0
    6.6702   -3.2043    0.0000 F   0  0  0  0  0  0  0  0  0  0  0  0
    6.6702   -4.0326    0.0000 O   0  0  0  0  0  0  0  0  0  0  0  0
    4.5524   -2.7844    0.0000 C   0  0  0  0  0  0  0  0  0  0  0  0
    0.9718   -0.7070    0.0000 C   0  0  0  0  0  0  0  0  0  0  0  0
    0.9752   -1.5471    0.0000 C   0  0  0  0  0  0  0  0  0  0  0  0
    0.2398   -0.3051    0.0000 F   0  0  0  0  0  0  0  0  0  0  0  0
    1.6894   -0.2937    0.0000 C   0  0  0  0  0  0  0  0  0  0  0  0
    2.4059   -0.7116    0.0000 C   0  0  0  0  0  0  0  0  0  0  0  0
    2.4123   -1.5419    0.0000 C   0  0  0  0  0  0  0  0  0  0  0  0
    1.6915   -1.9520    0.0000 C   0  0  0  0  0  0  0  0  0  0  0  0
    0.2466   -1.9607    0.0000 C   0  0  0  0  0  0  0  0  0  0  0  0
    6.9209   -8.1742    0.0000 N   0  0  0  0  0  0  0  0  0  0  0  0
  1  2  2  0  0  0  0
  2 34  1  0  0  0  0
 10  3  1  0  0  0  0
  4  3  1  0  0  0  0
  4  6  1  0  0  0  0
  4  5  1  6  0  0  0
  5  8  1  0  0  0  0
  5 12  1  0  0  0  0
  6  7  1  0  0  0  0
  8  7  1  0  0  0  0
 10  9  1  0  0  0  0
  9  8  1  0  0  0  0
 10  2  1  6  0  0  0
 11 12  1  0  0  0  0
 11 13  1  0  0  0  0
 12 24  2  0  0  0  0
 14 11  1  0  0  0  0
 15 11  1  0  0  0  0
 15 22  1  0  0  0  0
 16 17  1  0  0  0  0
 16 18  1  0  0  0  0
 17 20  2  0  0  0  0
 17 25  1  0  0  0  0
 19 16  2  0  0  0  0
 20 21  1  0  0  0  0
 21 22  2  0  0  0  0
 22 23  1  0  0  0  0
 25 15  2  0  0  0  0
 26 27  2  0  0  0  0
 26 29  1  0  0  0  0
 27 32  1  0  0  0  0
 27 33  1  0  0  0  0
 28 26  1  0  0  0  0
 29 30  2  0  0  0  0
 31 30  1  0  0  0  0
 31 18  1  0  0  0  0
 32 31  2  0  0  0  0
M  END
> <ID>
SCHEMBL21145848

> <InChIKey>
JLIYYNCQWHGBLK-IYNBXCLQSA-N

> <MW>
477.46

> <Series_Name>
Series_18

$$$$
SCHEMBL21145849
  Mrv1719007181907482D 0   0.00000     0.00000     0

 35 38  0  0  1  0              1 V2000 
    6.2532   -7.9377    0.0000 N   0  0  0  0  0  0  0  0  0  0  0  0
    5.3072   -8.3530    0.0000 S   0  0  0  0  0  0  0  0  0  0  0  0
    5.3131   -6.6672    0.0000 C   0  0  0  0  0  0  0  0  0  0  0  0
    5.3275   -5.8694    0.0000 C   0  0  2  0  0  0  0  0  0  0  0  0
    5.9994   -5.3995    0.0000 N   0  0  0  0  0  0  0  0  0  0  0  0
    6.6744   -5.8675    0.0000 C   0  0  0  0  0  0  0  0  0  0  0  0
    6.7703   -6.6513    0.0000 C   0  0  0  0  0  0  0  0  0  0  0  0
    6.0627   -7.0700    0.0000 C   0  0  0  0  0  0  0  0  0  0  0  0
    6.4078   -6.3695    0.0000 C   0  0  0  0  0  0  0  0  0  0  0  0
    5.7879   -6.3960    0.0000 C   0  0  0  0  0  0  0  0  0  0  0  0
    5.3090   -4.1381    0.0000 C   0  0  0  0  0  0  0  0  0  0  0  0
    6.0251   -4.6265    0.0000 C   0  0  0  0  0  0  0  0  0  0  0  0
    4.8688   -4.8688    0.0000 F   0  0  0  0  0  0  0  0  0  0  0  0
    4.4534   -4.1304    0.0000 F   0  0  0  0  0  0  0  0  0  0  0  0
    4.5846   -2.8668    0.0000 C   0  0  0  0  0  0  0  0  0  0  0  0
    5.2976   -3.2767    0.0000 C   0  0  0  0  0  0  0  0  0  0  0  0
    3.9305   -1.6152    0.0000 C   0  0  0  0  0  0  0  0  0  0  0  0
    4.5790   -2.0068    0.0000 C   0  0  0  0  0  0  0  0  0  0  0  0
    3.0920   -2.2498    0.0000 N   0  0  0  0  0  0  0  0  0  0  0  0
    3.8073   -0.7384    0.0000 O   0  0  0  0  0  0  0  0  0  0  0  0
    5.2918   -1.5968    0.0000 C   0  0  0  0  0  0  0  0  0  0  0  0
    6.0081   -2.0007    0.0000 C   0  0  0  0  0  0  0  0  0  0  0  0
    6.0142   -2.8550    0.0000 C   0  0  0  0  0  0  0  0  0  0  0  0
    6.7148   -3.2766    0.0000 F   0  0  0  0  0  0  0  0  0  0  0  0
    6.7148   -4.1073    0.0000 O   0  0  0  0  0  0  0  0  0  0  0  0
    0.9908   -0.7398    0.0000 C   0  0  0  0  0  0  0  0  0  0  0  0
    0.2307   -0.3231    0.0000 F   0  0  0  0  0  0  0  0  0  0  0  0
    1.6832   -0.3347    0.0000 C   0  0  0  0  0  0  0  0  0  0  0  0
    2.4084   -0.7336    0.0000 C   0  0  0  0  0  0  0  0  0  0  0  0
    2.4156   -1.5865    0.0000 C   0  0  0  0  0  0  0  0  0  0  0  0
    0.9789   -1.5910    0.0000 C   0  0  0  0  0  0  0  0  0  0  0  0
    1.6977   -1.9960    0.0000 C   0  0  0  0  0  0  0  0  0  0  0  0
    0.2316   -2.0075    0.0000 C   0  0  0  0  0  0  0  0  0  0  0  0
    4.6041   -7.9377    0.0000 C   0  0  0  0  0  0  0  0  0  0  0  0
    6.7532   -8.1920    0.0000 H   0  0  0  0  0  0  0  0  0  0  0  0
  1  2  1  0  0  0  0
  1 35  1  0  0  0  0
  4  3  1  0  0  0  0
  4  5  1  6  0  0  0
  4 10  1  0  0  0  0
  5  6  1  0  0  0  0
  5 12  1  0  0  0  0
  6  9  1  0  0  0  0
  6  7  1  0  0  0  0
  7  8  1  0  0  0  0
  8  3  1  0  0  0  0
  8  1  1  0  0  0  0
  9 10  1  0  0  0  0
 11 12  1  0  0  0  0
 11 13  1  0  0  0  0
 12 25  2  0  0  0  0
 14 11  1  0  0  0  0
 15 16  2  0  0  0  0
 15 18  1  0  0  0  0
 16 11  1  0  0  0  0
 17 18  1  0  0  0  0
 17 19  1  0  0  0  0
 18 21  2  0  0  0  0
 20 17  2  0  0  0  0
 21 22  1  0  0  0  0
 22 23  2  0  0  0  0
 23 24  1  0  0  0  0
 23 16  1  0  0  0  0
 26 27  1  0  0  0  0
 26 28  1  0  0  0  0
 28 29  2  0  0  0  0
 30 29  1  0  0  0  0
 30 19  1  0  0  0  0
 31 32  1  0  0  0  0
 31 26  2  0  0  0  0
 32 30  2  0  0  0  0
 33 31  1  0  0  0  0
 34  2  1  0  0  0  0
M  END
> <ID>
SCHEMBL21145849

> <InChIKey>
BJGKJJKDSJHMFX-LXPRWKDFSA-N

> <MW>
495.54

> <Series_Name>
Series_18

$$$$
SCHEMBL21145851
  Mrv1719007181907482D 0   0.00000     0.00000     0

 39 43  0  0  1  0              1 V2000 
    6.7213   -8.0956    0.0000 N   0  0  0  0  0  0  0  0  0  0  0  0
    6.7884   -8.9155    0.0000 C   0  0  0  0  0  0  0  0  0  0  0  0
    7.5027   -9.3122    0.0000 C   0  0  0  0  0  0  0  0  0  0  0  0
    8.1815   -8.9331    0.0000 O   0  0  0  0  0  0  0  0  0  0  0  0
    8.2116   -8.1026    0.0000 C   0  0  0  0  0  0  0  0  0  0  0  0
    7.5107   -7.7277    0.0000 C   0  0  0  0  0  0  0  0  0  0  0  0
    6.0328   -7.6713    0.0000 C   0  0  0  0  0  0  0  0  0  0  0  0
    5.2891   -6.4635    0.0000 C   0  0  0  0  0  0  0  0  0  0  0  0
    5.3000   -5.6587    0.0000 C   0  0  2  0  0  0  0  0  0  0  0  0
    5.9697   -5.2396    0.0000 N   0  0  0  0  0  0  0  0  0  0  0  0
    5.7743   -6.2086    0.0000 C   0  0  0  0  0  0  0  0  0  0  0  0
    6.3719   -6.1729    0.0000 C   0  0  0  0  0  0  0  0  0  0  0  0
    6.6635   -5.6506    0.0000 C   0  0  0  0  0  0  0  0  0  0  0  0
    6.7370   -6.4565    0.0000 C   0  0  0  0  0  0  0  0  0  0  0  0
    6.0202   -6.8577    0.0000 C   0  0  2  0  0  0  0  0  0  0  0  0
    5.2606   -3.9966    0.0000 C   0  0  0  0  0  0  0  0  0  0  0  0
    5.9926   -4.4928    0.0000 C   0  0  0  0  0  0  0  0  0  0  0  0
    4.8316   -4.7027    0.0000 F   0  0  0  0  0  0  0  0  0  0  0  0
    4.4236   -3.9941    0.0000 F   0  0  0  0  0  0  0  0  0  0  0  0
    5.2651   -3.1696    0.0000 C   0  0  0  0  0  0  0  0  0  0  0  0
    4.5363   -2.7476    0.0000 C   0  0  0  0  0  0  0  0  0  0  0  0
    4.5420   -1.9354    0.0000 C   0  0  0  0  0  0  0  0  0  0  0  0
    3.7660   -1.5567    0.0000 C   0  0  0  0  0  0  0  0  0  0  0  0
    3.8008   -0.7087    0.0000 O   0  0  0  0  0  0  0  0  0  0  0  0
    5.2740   -1.5302    0.0000 C   0  0  0  0  0  0  0  0  0  0  0  0
    5.9777   -1.9274    0.0000 C   0  0  0  0  0  0  0  0  0  0  0  0
    5.9871   -2.7623    0.0000 C   0  0  0  0  0  0  0  0  0  0  0  0
    6.6784   -3.1781    0.0000 F   0  0  0  0  0  0  0  0  0  0  0  0
    6.6784   -3.9941    0.0000 O   0  0  0  0  0  0  0  0  0  0  0  0
    0.2577   -1.9326    0.0000 C   0  0  0  0  0  0  0  0  0  0  0  0
    0.9680   -1.5292    0.0000 C   0  0  0  0  0  0  0  0  0  0  0  0
    0.9717   -0.7042    0.0000 C   0  0  0  0  0  0  0  0  0  0  0  0
    0.2362   -0.3006    0.0000 F   0  0  0  0  0  0  0  0  0  0  0  0
    1.7154   -0.3032    0.0000 C   0  0  0  0  0  0  0  0  0  0  0  0
    2.4131   -0.7030    0.0000 C   0  0  0  0  0  0  0  0  0  0  0  0
    2.4252   -1.5282    0.0000 C   0  0  0  0  0  0  0  0  0  0  0  0
    3.0922   -2.1796    0.0000 N   0  0  0  0  0  0  0  0  0  0  0  0
    1.6875   -1.9389    0.0000 C   0  0  0  0  0  0  0  0  0  0  0  0
    5.3040   -8.1386    0.0000 O   0  0  0  0  0  0  0  0  0  0  0  0
  1  2  1  0  0  0  0
  2  3  1  0  0  0  0
  3  4  1  0  0  0  0
  4  5  1  0  0  0  0
  5  6  1  0  0  0  0
  6  1  1  0  0  0  0
  7  1  1  0  0  0  0
  9  8  1  0  0  0  0
  9 10  1  6  0  0  0
  9 11  1  0  0  0  0
 10 13  1  0  0  0  0
 10 17  1  0  0  0  0
 12 11  1  0  0  0  0
 13 12  1  0  0  0  0
 13 14  1  0  0  0  0
 15 14  1  0  0  0  0
 15  8  1  0  0  0  0
 15  7  1  6  0  0  0
 16 17  1  0  0  0  0
 16 18  1  0  0  0  0
 17 29  2  0  0  0  0
 19 16  1  0  0  0  0
 20 16  1  0  0  0  0
 21 20  2  0  0  0  0
 21 22  1  0  0  0  0
 22 25  2  0  0  0  0
 23 22  1  0  0  0  0
 23 24  2  0  0  0  0
 25 26  1  0  0  0  0
 26 27  2  0  0  0  0
 27 28  1  0  0  0  0
 27 20  1  0  0  0  0
 30 31  1  0  0  0  0
 31 32  2  0  0  0  0
 31 38  1  0  0  0  0
 32 33  1  0  0  0  0
 32 34  1  0  0  0  0
 34 35  2  0  0  0  0
 36 35  1  0  0  0  0
 36 37  1  0  0  0  0
 37 23  1  0  0  0  0
 38 36  2  0  0  0  0
 39  7  2  0  0  0  0
M  END
> <ID>
SCHEMBL21145851

> <InChIKey>
YPQHKSUOMMWHNL-SAMMEDMISA-N

> <MW>
547.551

> <Series_Name>
Series_18

$$$$
SCHEMBL21145852
  Mrv1719007181907482D 0   0.00000     0.00000     0

 34 37  0  0  1  0              1 V2000 
    5.2865   -8.1855    0.0000 O   0  0  0  0  0  0  0  0  0  0  0  0
    6.0289   -7.7120    0.0000 C   0  0  0  0  0  0  0  0  0  0  0  0
    6.9491   -8.1641    0.0000 O   0  0  0  0  0  0  0  0  0  0  0  0
    5.3017   -6.5231    0.0000 C   0  0  0  0  0  0  0  0  0  0  0  0
    5.2959   -5.7371    0.0000 C   0  0  2  0  0  0  0  0  0  0  0  0
    5.9686   -5.2651    0.0000 N   0  0  0  0  0  0  0  0  0  0  0  0
    5.7746   -6.2484    0.0000 C   0  0  0  0  0  0  0  0  0  0  0  0
    6.3747   -6.2125    0.0000 C   0  0  0  0  0  0  0  0  0  0  0  0
    6.6581   -5.7009    0.0000 C   0  0  0  0  0  0  0  0  0  0  0  0
    6.7394   -6.4995    0.0000 C   0  0  0  0  0  0  0  0  0  0  0  0
    6.0118   -6.9136    0.0000 C   0  0  2  0  0  0  0  0  0  0  0  0
    5.2418   -4.0499    0.0000 C   0  0  0  0  0  0  0  0  0  0  0  0
    5.9732   -4.4739    0.0000 C   0  0  0  0  0  0  0  0  0  0  0  0
    4.8388   -4.7322    0.0000 F   0  0  0  0  0  0  0  0  0  0  0  0
    4.4125   -4.0288    0.0000 F   0  0  0  0  0  0  0  0  0  0  0  0
    4.5477   -2.7869    0.0000 C   0  0  0  0  0  0  0  0  0  0  0  0
    5.2806   -3.1947    0.0000 C   0  0  0  0  0  0  0  0  0  0  0  0
    4.5469   -1.9580    0.0000 C   0  0  0  0  0  0  0  0  0  0  0  0
    3.7410   -1.5847    0.0000 C   0  0  0  0  0  0  0  0  0  0  0  0
    3.7943   -0.7248    0.0000 O   0  0  0  0  0  0  0  0  0  0  0  0
    5.2686   -1.5416    0.0000 C   0  0  0  0  0  0  0  0  0  0  0  0
    5.9824   -2.7842    0.0000 C   0  0  0  0  0  0  0  0  0  0  0  0
    6.6933   -3.1975    0.0000 F   0  0  0  0  0  0  0  0  0  0  0  0
    6.6720   -4.0288    0.0000 O   0  0  0  0  0  0  0  0  0  0  0  0
    5.9651   -1.9544    0.0000 C   0  0  0  0  0  0  0  0  0  0  0  0
    0.9672   -0.7131    0.0000 C   0  0  0  0  0  0  0  0  0  0  0  0
    0.2345   -0.2984    0.0000 F   0  0  0  0  0  0  0  0  0  0  0  0
    1.6827   -0.3024    0.0000 C   0  0  0  0  0  0  0  0  0  0  0  0
    2.3952   -1.5454    0.0000 C   0  0  0  0  0  0  0  0  0  0  0  0
    3.0909   -2.1956    0.0000 N   0  0  0  0  0  0  0  0  0  0  0  0
    0.9666   -1.5477    0.0000 C   0  0  0  0  0  0  0  0  0  0  0  0
    1.6816   -1.9500    0.0000 C   0  0  0  0  0  0  0  0  0  0  0  0
    0.2188   -1.9611    0.0000 C   0  0  0  0  0  0  0  0  0  0  0  0
    2.3848   -0.7203    0.0000 C   0  0  0  0  0  0  0  0  0  0  0  0
  1  2  2  0  0  0  0
  2  3  1  0  0  0  0
  5  4  1  0  0  0  0
  5  7  1  0  0  0  0
  5  6  1  6  0  0  0
  6  9  1  0  0  0  0
  6 13  1  0  0  0  0
  8  7  1  0  0  0  0
  9  8  1  0  0  0  0
  9 10  1  0  0  0  0
 11 10  1  0  0  0  0
 11  2  1  6  0  0  0
 11  4  1  0  0  0  0
 12 13  1  0  0  0  0
 13 24  2  0  0  0  0
 14 12  1  0  0  0  0
 15 12  1  0  0  0  0
 16 17  2  0  0  0  0
 16 18  1  0  0  0  0
 17 12  1  0  0  0  0
 18 21  2  0  0  0  0
 19 18  1  0  0  0  0
 19 20  2  0  0  0  0
 21 25  1  0  0  0  0
 22 23  1  0  0  0  0
 22 17  1  0  0  0  0
 25 22  2  0  0  0  0
 26 27  1  0  0  0  0
 26 28  1  0  0  0  0
 28 34  2  0  0  0  0
 29 30  1  0  0  0  0
 29 34  1  0  0  0  0
 30 19  1  0  0  0  0
 31 32  1  0  0  0  0
 31 26  2  0  0  0  0
 32 29  2  0  0  0  0
 33 31  1  0  0  0  0
M  END
> <ID>
SCHEMBL21145852

> <InChIKey>
YURKGSXYTGPDAY-IYNBXCLQSA-N

> <MW>
478.444

> <Series_Name>
Series_18

$$$$
SCHEMBL21145853
  Mrv1719007181907482D 0   0.00000     0.00000     0

 37 40  0  0  1  0              1 V2000 
    7.5171   -7.7385    0.0000 C   0  0  0  0  0  0  0  0  0  0  0  0
    6.7922   -8.3956    0.0000 N   0  0  0  0  0  0  0  0  0  0  0  0
    9.1527   -7.7052    0.0000 O   0  0  0  0  0  0  0  0  0  0  0  0
    8.2710   -8.1234    0.0000 C   0  0  0  0  0  0  0  0  0  0  0  0
    5.3446   -8.1951    0.0000 O   0  0  0  0  0  0  0  0  0  0  0  0
    6.0738   -7.7155    0.0000 C   0  0  0  0  0  0  0  0  0  0  0  0
    5.3356   -5.7831    0.0000 C   0  0  2  0  0  0  0  0  0  0  0  0
    6.0127   -5.2778    0.0000 N   0  0  0  0  0  0  0  0  0  0  0  0
    6.4269   -6.2001    0.0000 C   0  0  0  0  0  0  0  0  0  0  0  0
    6.7249   -5.7848    0.0000 C   0  0  0  0  0  0  0  0  0  0  0  0
    6.7852   -6.4974    0.0000 C   0  0  0  0  0  0  0  0  0  0  0  0
    6.0506   -6.9106    0.0000 C   0  0  1  0  0  0  0  0  0  0  0  0
    5.8406   -6.2406    0.0000 C   0  0  0  0  0  0  0  0  0  0  0  0
    5.3377   -6.5239    0.0000 C   0  0  0  0  0  0  0  0  0  0  0  0
    5.2880   -4.0598    0.0000 C   0  0  0  0  0  0  0  0  0  0  0  0
    6.0160   -4.4480    0.0000 C   0  0  0  0  0  0  0  0  0  0  0  0
    4.8547   -4.7434    0.0000 F   0  0  0  0  0  0  0  0  0  0  0  0
    4.4539   -4.0307    0.0000 F   0  0  0  0  0  0  0  0  0  0  0  0
    4.5791   -2.7910    0.0000 C   0  0  0  0  0  0  0  0  0  0  0  0
    5.3163   -3.2007    0.0000 C   0  0  0  0  0  0  0  0  0  0  0  0
    4.5750   -1.9613    0.0000 C   0  0  0  0  0  0  0  0  0  0  0  0
    3.9368   -1.5826    0.0000 C   0  0  0  0  0  0  0  0  0  0  0  0
    3.1177   -2.2047    0.0000 N   0  0  0  0  0  0  0  0  0  0  0  0
    3.8303   -0.7349    0.0000 O   0  0  0  0  0  0  0  0  0  0  0  0
    5.2901   -1.5714    0.0000 C   0  0  0  0  0  0  0  0  0  0  0  0
    6.0200   -1.9604    0.0000 C   0  0  0  0  0  0  0  0  0  0  0  0
    6.7254   -3.2068    0.0000 F   0  0  0  0  0  0  0  0  0  0  0  0
    6.0183   -2.7918    0.0000 C   0  0  0  0  0  0  0  0  0  0  0  0
    6.7254   -4.0307    0.0000 O   0  0  0  0  0  0  0  0  0  0  0  0
    0.2449   -0.3118    0.0000 F   0  0  0  0  0  0  0  0  0  0  0  0
    0.9867   -0.7208    0.0000 C   0  0  0  0  0  0  0  0  0  0  0  0
    1.7059   -0.3160    0.0000 C   0  0  0  0  0  0  0  0  0  0  0  0
    2.4176   -0.7188    0.0000 C   0  0  0  0  0  0  0  0  0  0  0  0
    2.4215   -1.5558    0.0000 C   0  0  0  0  0  0  0  0  0  0  0  0
    1.6985   -1.9597    0.0000 C   0  0  0  0  0  0  0  0  0  0  0  0
    0.9976   -1.5600    0.0000 C   0  0  0  0  0  0  0  0  0  0  0  0
    0.2783   -1.9635    0.0000 C   0  0  0  0  0  0  0  0  0  0  0  0
  1  2  1  0  0  0  0
  3  4  1  0  0  0  0
  4  1  1  0  0  0  0
  5  6  2  0  0  0  0
  6  2  1  0  0  0  0
  7  8  1  6  0  0  0
  7 13  1  0  0  0  0
  7 14  1  0  0  0  0
  8 16  1  0  0  0  0
  9 13  1  0  0  0  0
 10  9  1  0  0  0  0
 10  8  1  0  0  0  0
 10 11  1  0  0  0  0
 12 11  1  0  0  0  0
 12 14  1  0  0  0  0
 12  6  1  6  0  0  0
 15 16  1  0  0  0  0
 16 29  2  0  0  0  0
 17 15  1  0  0  0  0
 18 15  1  0  0  0  0
 19 20  2  0  0  0  0
 19 21  1  0  0  0  0
 20 15  1  0  0  0  0
 20 28  1  0  0  0  0
 21 25  2  0  0  0  0
 22 21  1  0  0  0  0
 22 23  1  0  0  0  0
 24 22  2  0  0  0  0
 26 25  1  0  0  0  0
 27 28  1  0  0  0  0
 28 26  2  0  0  0  0
 30 31  1  0  0  0  0
 31 36  2  0  0  0  0
 32 31  1  0  0  0  0
 32 33  2  0  0  0  0
 34 23  1  0  0  0  0
 34 33  1  0  0  0  0
 35 34  2  0  0  0  0
 36 35  1  0  0  0  0
 36 37  1  0  0  0  0
M  END
> <ID>
SCHEMBL21145853

> <InChIKey>
LAYHKEFSJRTYRX-SYUDBMKNSA-N

> <MW>
521.513

> <Series_Name>
Series_18

$$$$
SCHEMBL21145854
  Mrv1719007181907482D 0   0.00000     0.00000     0

 29 31  0  0  0  0              1 V2000 
    5.2882   -6.3699    0.0000 C   0  0  0  0  0  0  0  0  0  0  0  0
    5.2809   -5.5591    0.0000 C   0  0  0  0  0  0  0  0  0  0  0  0
    5.9962   -5.1475    0.0000 N   0  0  0  0  0  0  0  0  0  0  0  0
    6.7356   -6.3680    0.0000 C   0  0  0  0  0  0  0  0  0  0  0  0
    6.7370   -5.5540    0.0000 C   0  0  0  0  0  0  0  0  0  0  0  0
    6.0073   -6.7658    0.0000 C   0  0  0  0  0  0  0  0  0  0  0  0
    5.2771   -3.9345    0.0000 C   0  0  0  0  0  0  0  0  0  0  0  0
    6.0115   -4.3225    0.0000 C   0  0  0  0  0  0  0  0  0  0  0  0
    4.8522   -4.6309    0.0000 F   0  0  0  0  0  0  0  0  0  0  0  0
    4.4464   -3.9298    0.0000 F   0  0  0  0  0  0  0  0  0  0  0  0
    5.2778   -3.1160    0.0000 C   0  0  0  0  0  0  0  0  0  0  0  0
    4.5686   -2.7119    0.0000 C   0  0  0  0  0  0  0  0  0  0  0  0
    4.5643   -1.9003    0.0000 C   0  0  0  0  0  0  0  0  0  0  0  0
    3.7684   -1.5211    0.0000 C   0  0  0  0  0  0  0  0  0  0  0  0
    3.0995   -2.1309    0.0000 N   0  0  0  0  0  0  0  0  0  0  0  0
    3.8375   -0.6827    0.0000 O   0  0  0  0  0  0  0  0  0  0  0  0
    5.2964   -1.5079    0.0000 C   0  0  0  0  0  0  0  0  0  0  0  0
    6.0026   -1.8896    0.0000 C   0  0  0  0  0  0  0  0  0  0  0  0
    5.9990   -2.7146    0.0000 C   0  0  0  0  0  0  0  0  0  0  0  0
    6.7342   -3.1180    0.0000 F   0  0  0  0  0  0  0  0  0  0  0  0
    6.7342   -3.9298    0.0000 O   0  0  0  0  0  0  0  0  0  0  0  0
    0.2214   -1.9003    0.0000 F   0  0  0  0  0  0  0  0  0  0  0  0
    0.9494   -1.4940    0.0000 C   0  0  0  0  0  0  0  0  0  0  0  0
    0.9444   -0.6800    0.0000 C   0  0  0  0  0  0  0  0  0  0  0  0
    0.2214   -0.2767    0.0000 F   0  0  0  0  0  0  0  0  0  0  0  0
    1.6898   -0.2808    0.0000 C   0  0  0  0  0  0  0  0  0  0  0  0
    2.4054   -0.6785    0.0000 C   0  0  0  0  0  0  0  0  0  0  0  0
    2.4107   -1.4945    0.0000 C   0  0  0  0  0  0  0  0  0  0  0  0
    1.6849   -1.8963    0.0000 C   0  0  0  0  0  0  0  0  0  0  0  0
  1  2  1  0  0  0  0
  2  3  1  0  0  0  0
  3  8  1  0  0  0  0
  4  5  1  0  0  0  0
  4  6  1  0  0  0  0
  5  3  1  0  0  0  0
  6  1  1  0  0  0  0
  7  8  1  0  0  0  0
  7 11  1  0  0  0  0
  8 21  2  0  0  0  0
  9  7  1  0  0  0  0
 10  7  1  0  0  0  0
 11 19  2  0  0  0  0
 12 11  1  0  0  0  0
 13 12  2  0  0  0  0
 13 14  1  0  0  0  0
 13 17  1  0  0  0  0
 14 16  2  0  0  0  0
 15 14  1  0  0  0  0
 17 18  2  0  0  0  0
 19 20  1  0  0  0  0
 19 18  1  0  0  0  0
 22 23  1  0  0  0  0
 23 29  2  0  0  0  0
 24 23  1  0  0  0  0
 24 26  2  0  0  0  0
 25 24  1  0  0  0  0
 26 27  1  0  0  0  0
 27 28  2  0  0  0  0
 28 15  1  0  0  0  0
 29 28  1  0  0  0  0
M  END
> <ID>
SCHEMBL21145854

> <InChIKey>
YCSMRZRFDLVLNH-UHFFFAOYSA-N

> <MW>
412.36

> <Series_Name>
Series_18

$$$$
SCHEMBL21145857
  Mrv1719007181907482D 0   0.00000     0.00000     0

 36 39  0  0  1  0              1 V2000 
    5.7706   -7.6748    0.0000 N   0  0  0  0  0  0  0  0  0  0  0  0
    6.6638   -8.0392    0.0000 C   0  0  0  0  0  0  0  0  0  0  0  0
    7.4235   -7.6748    0.0000 O   0  0  0  0  0  0  0  0  0  0  0  0
    6.7165   -8.8831    0.0000 C   0  0  0  0  0  0  0  0  0  0  0  0
    5.9736   -5.2196    0.0000 N   0  0  0  0  0  0  0  0  0  0  0  0
    5.2918   -5.7647    0.0000 C   0  0  2  0  0  0  0  0  0  0  0  0
    5.6615   -6.3509    0.0000 C   0  0  0  0  0  0  0  0  0  0  0  0
    5.9910   -5.7446    0.0000 C   0  0  0  0  0  0  0  0  0  0  0  0
    6.7197   -5.6414    0.0000 C   0  0  1  0  0  0  0  0  0  0  0  0
    6.3039   -6.2901    0.0000 C   0  0  0  0  0  0  0  0  0  0  0  0
    6.7180   -6.4308    0.0000 C   0  0  0  0  0  0  0  0  0  0  0  0
    6.0017   -6.8423    0.0000 C   0  0  2  0  0  0  0  0  0  0  0  0
    5.2947   -6.4344    0.0000 C   0  0  0  0  0  0  0  0  0  0  0  0
    5.2858   -3.9830    0.0000 C   0  0  0  0  0  0  0  0  0  0  0  0
    5.9912   -4.4049    0.0000 C   0  0  0  0  0  0  0  0  0  0  0  0
    4.8524   -4.6977    0.0000 F   0  0  0  0  0  0  0  0  0  0  0  0
    4.4464   -3.9824    0.0000 F   0  0  0  0  0  0  0  0  0  0  0  0
    4.5745   -2.7517    0.0000 C   0  0  0  0  0  0  0  0  0  0  0  0
    5.2894   -3.1579    0.0000 C   0  0  0  0  0  0  0  0  0  0  0  0
    4.5646   -1.9228    0.0000 C   0  0  0  0  0  0  0  0  0  0  0  0
    3.9001   -1.5441    0.0000 C   0  0  0  0  0  0  0  0  0  0  0  0
    3.0931   -2.1652    0.0000 N   0  0  0  0  0  0  0  0  0  0  0  0
    3.8277   -0.6960    0.0000 O   0  0  0  0  0  0  0  0  0  0  0  0
    5.2950   -1.5136    0.0000 C   0  0  0  0  0  0  0  0  0  0  0  0
    6.0045   -1.9196    0.0000 C   0  0  0  0  0  0  0  0  0  0  0  0
    5.9963   -2.7471    0.0000 C   0  0  0  0  0  0  0  0  0  0  0  0
    6.7082   -3.1511    0.0000 F   0  0  0  0  0  0  0  0  0  0  0  0
    6.7082   -3.9824    0.0000 O   0  0  0  0  0  0  0  0  0  0  0  0
    0.9486   -0.6949    0.0000 C   0  0  0  0  0  0  0  0  0  0  0  0
    0.9623   -1.5198    0.0000 C   0  0  0  0  0  0  0  0  0  0  0  0
    0.2319   -0.2899    0.0000 F   0  0  0  0  0  0  0  0  0  0  0  0
    2.4009   -0.6943    0.0000 C   0  0  0  0  0  0  0  0  0  0  0  0
    2.4161   -1.5196    0.0000 C   0  0  0  0  0  0  0  0  0  0  0  0
    1.6876   -1.9288    0.0000 C   0  0  0  0  0  0  0  0  0  0  0  0
    0.2172   -1.9332    0.0000 C   0  0  0  0  0  0  0  0  0  0  0  0
    1.6881   -0.3032    0.0000 C   0  0  0  0  0  0  0  0  0  0  0  0
  1  2  1  0  0  0  0
  2  3  2  0  0  0  0
  4  2  1  0  0  0  0
  5 15  1  0  0  0  0
  6  5  1  6  0  0  0
  6  7  1  0  0  0  0
  6 13  1  0  0  0  0
  7  8  1  0  0  0  0
  9 10  1  0  0  0  0
  9  5  1  6  0  0  0
  9 11  1  0  0  0  0
 10  8  1  0  0  0  0
 12  1  1  1  0  0  0
 12 11  1  0  0  0  0
 12 13  1  0  0  0  0
 14 15  1  0  0  0  0
 14 16  1  0  0  0  0
 14 19  1  0  0  0  0
 15 28  2  0  0  0  0
 17 14  1  0  0  0  0
 18 19  1  0  0  0  0
 19 26  2  0  0  0  0
 20 18  2  0  0  0  0
 20 24  1  0  0  0  0
 21 20  1  0  0  0  0
 21 22  1  0  0  0  0
 23 21  2  0  0  0  0
 24 25  2  0  0  0  0
 26 27  1  0  0  0  0
 26 25  1  0  0  0  0
 29 30  2  0  0  0  0
 29 36  1  0  0  0  0
 30 34  1  0  0  0  0
 30 35  1  0  0  0  0
 31 29  1  0  0  0  0
 32 33  1  0  0  0  0
 33 22  1  0  0  0  0
 34 33  2  0  0  0  0
 36 32  2  0  0  0  0
M  END
> <ID>
SCHEMBL21145857

> <InChIKey>
VCGUKFQPOQJGMF-ACDBMABISA-N

> <MW>
505.514

> <Series_Name>
Series_18

$$$$
SCHEMBL21145860
  Mrv1719007181907482D 0   0.00000     0.00000     0

 33 36  0  0  1  0              1 V2000 
    5.9340   -6.9010    0.0000 C   0  0  1  0  0  0  0  0  0  0  0  0
    5.2347   -6.4940    0.0000 C   0  0  0  0  0  0  0  0  0  0  0  0
    5.2451   -5.6542    0.0000 C   0  0  2  0  0  0  0  0  0  0  0  0
    5.9081   -5.2517    0.0000 N   0  0  0  0  0  0  0  0  0  0  0  0
    5.6058   -6.3811    0.0000 C   0  0  0  0  0  0  0  0  0  0  0  0
    5.9042   -5.7756    0.0000 C   0  0  0  0  0  0  0  0  0  0  0  0
    6.2818   -6.3633    0.0000 C   0  0  0  0  0  0  0  0  0  0  0  0
    6.6314   -5.6645    0.0000 C   0  0  1  0  0  0  0  0  0  0  0  0
    6.6622   -6.4937    0.0000 C   0  0  0  0  0  0  0  0  0  0  0  0
    6.1199   -7.7293    0.0000 N   0  0  0  0  0  0  0  0  0  0  0  0
    5.2297   -4.0242    0.0000 C   0  0  0  0  0  0  0  0  0  0  0  0
    5.9518   -4.5151    0.0000 C   0  0  0  0  0  0  0  0  0  0  0  0
    4.8070   -4.7223    0.0000 F   0  0  0  0  0  0  0  0  0  0  0  0
    4.3835   -4.0023    0.0000 F   0  0  0  0  0  0  0  0  0  0  0  0
    4.5235   -2.7757    0.0000 C   0  0  0  0  0  0  0  0  0  0  0  0
    5.2430   -3.1839    0.0000 C   0  0  0  0  0  0  0  0  0  0  0  0
    4.5158   -1.9409    0.0000 C   0  0  0  0  0  0  0  0  0  0  0  0
    3.7164   -1.5736    0.0000 C   0  0  0  0  0  0  0  0  0  0  0  0
    3.7693   -0.6988    0.0000 O   0  0  0  0  0  0  0  0  0  0  0  0
    5.2265   -1.5346    0.0000 C   0  0  0  0  0  0  0  0  0  0  0  0
    5.9366   -1.9355    0.0000 C   0  0  0  0  0  0  0  0  0  0  0  0
    5.9409   -2.7728    0.0000 C   0  0  0  0  0  0  0  0  0  0  0  0
    6.6493   -3.1764    0.0000 F   0  0  0  0  0  0  0  0  0  0  0  0
    6.6281   -4.0023    0.0000 O   0  0  0  0  0  0  0  0  0  0  0  0
    0.9641   -0.7027    0.0000 C   0  0  0  0  0  0  0  0  0  0  0  0
    0.2330   -0.2965    0.0000 F   0  0  0  0  0  0  0  0  0  0  0  0
    1.6785   -0.3007    0.0000 C   0  0  0  0  0  0  0  0  0  0  0  0
    2.3799   -0.6936    0.0000 C   0  0  0  0  0  0  0  0  0  0  0  0
    2.3876   -1.5311    0.0000 C   0  0  0  0  0  0  0  0  0  0  0  0
    3.0706   -2.1811    0.0000 N   0  0  0  0  0  0  0  0  0  0  0  0
    0.9561   -1.5393    0.0000 C   0  0  0  0  0  0  0  0  0  0  0  0
    1.6745   -1.9358    0.0000 C   0  0  0  0  0  0  0  0  0  0  0  0
    0.2435   -1.9550    0.0000 C   0  0  0  0  0  0  0  0  0  0  0  0
  1  2  1  0  0  0  0
  1 10  1  1  0  0  0
  1  9  1  0  0  0  0
  3  2  1  0  0  0  0
  3  4  1  6  0  0  0
  3  5  1  0  0  0  0
  4 12  1  0  0  0  0
  5  6  1  0  0  0  0
  6  7  1  0  0  0  0
  8  7  1  0  0  0  0
  8  4  1  6  0  0  0
  8  9  1  0  0  0  0
 11 12  1  0  0  0  0
 11 13  1  0  0  0  0
 11 16  1  0  0  0  0
 12 24  2  0  0  0  0
 14 11  1  0  0  0  0
 15 16  1  0  0  0  0
 16 22  2  0  0  0  0
 17 15  2  0  0  0  0
 17 18  1  0  0  0  0
 17 20  1  0  0  0  0
 18 19  2  0  0  0  0
 20 21  2  0  0  0  0
 22 23  1  0  0  0  0
 22 21  1  0  0  0  0
 25 26  1  0  0  0  0
 25 27  1  0  0  0  0
 27 28  2  0  0  0  0
 29 28  1  0  0  0  0
 29 30  1  0  0  0  0
 30 18  1  0  0  0  0
 31 32  1  0  0  0  0
 31 25  2  0  0  0  0
 32 29  2  0  0  0  0
 33 31  1  0  0  0  0
M  END
> <ID>
SCHEMBL21145860

> <InChIKey>
MZIZGDVUJMBMSZ-VBUUOAMHSA-N

> <MW>
463.477

> <Series_Name>
Series_18

$$$$
SCHEMBL21145868
  Mrv1719007181907492D 0   0.00000     0.00000     0

 30 32  0  0  0  0              1 V2000 
    5.9566   -6.8343    0.0000 C   0  0  0  0  0  0  0  0  0  0  0  0
    5.2176   -6.4287    0.0000 C   0  0  0  0  0  0  0  0  0  0  0  0
    5.2247   -5.6096    0.0000 C   0  0  0  0  0  0  0  0  0  0  0  0
    5.9242   -5.2133    0.0000 N   0  0  0  0  0  0  0  0  0  0  0  0
    6.6593   -6.4369    0.0000 C   0  0  0  0  0  0  0  0  0  0  0  0
    6.6512   -5.6113    0.0000 C   0  0  0  0  0  0  0  0  0  0  0  0
    6.1339   -7.6650    0.0000 O   0  0  0  0  0  0  0  0  0  0  0  0
    5.2189   -3.9817    0.0000 C   0  0  0  0  0  0  0  0  0  0  0  0
    5.9752   -4.4405    0.0000 C   0  0  0  0  0  0  0  0  0  0  0  0
    4.7941   -4.6847    0.0000 F   0  0  0  0  0  0  0  0  0  0  0  0
    4.3930   -3.9738    0.0000 F   0  0  0  0  0  0  0  0  0  0  0  0
    5.2211   -3.1463    0.0000 C   0  0  0  0  0  0  0  0  0  0  0  0
    4.5138   -2.7389    0.0000 C   0  0  0  0  0  0  0  0  0  0  0  0
    4.5109   -1.9165    0.0000 C   0  0  0  0  0  0  0  0  0  0  0  0
    3.7339   -1.5387    0.0000 C   0  0  0  0  0  0  0  0  0  0  0  0
    3.0623   -2.1601    0.0000 N   0  0  0  0  0  0  0  0  0  0  0  0
    3.7915   -0.6927    0.0000 O   0  0  0  0  0  0  0  0  0  0  0  0
    5.2408   -1.5165    0.0000 C   0  0  0  0  0  0  0  0  0  0  0  0
    5.9254   -1.9120    0.0000 C   0  0  0  0  0  0  0  0  0  0  0  0
    5.9358   -2.7441    0.0000 C   0  0  0  0  0  0  0  0  0  0  0  0
    6.6534   -3.1535    0.0000 F   0  0  0  0  0  0  0  0  0  0  0  0
    6.6534   -3.9738    0.0000 O   0  0  0  0  0  0  0  0  0  0  0  0
    0.9331   -0.6886    0.0000 C   0  0  0  0  0  0  0  0  0  0  0  0
    0.9416   -1.5136    0.0000 C   0  0  0  0  0  0  0  0  0  0  0  0
    0.2188   -0.2917    0.0000 F   0  0  0  0  0  0  0  0  0  0  0  0
    1.6603   -0.2770    0.0000 C   0  0  0  0  0  0  0  0  0  0  0  0
    2.3765   -0.6865    0.0000 C   0  0  0  0  0  0  0  0  0  0  0  0
    2.3796   -1.5142    0.0000 C   0  0  0  0  0  0  0  0  0  0  0  0
    1.6600   -1.9140    0.0000 C   0  0  0  0  0  0  0  0  0  0  0  0
    0.2424   -1.9132    0.0000 C   0  0  0  0  0  0  0  0  0  0  0  0
  1  2  1  0  0  0  0
  1  7  1  0  0  0  0
  2  3  1  0  0  0  0
  3  4  1  0  0  0  0
  4  9  1  0  0  0  0
  5  6  1  0  0  0  0
  5  1  1  0  0  0  0
  6  4  1  0  0  0  0
  8  9  1  0  0  0  0
  8 10  1  0  0  0  0
  8 12  1  0  0  0  0
  9 22  2  0  0  0  0
 11  8  1  0  0  0  0
 12 20  2  0  0  0  0
 13 12  1  0  0  0  0
 14 13  2  0  0  0  0
 14 15  1  0  0  0  0
 14 18  1  0  0  0  0
 15 17  2  0  0  0  0
 16 15  1  0  0  0  0
 18 19  2  0  0  0  0
 20 21  1  0  0  0  0
 20 19  1  0  0  0  0
 23 24  1  0  0  0  0
 23 26  2  0  0  0  0
 24 29  2  0  0  0  0
 25 23  1  0  0  0  0
 26 27  1  0  0  0  0
 27 28  2  0  0  0  0
 28 16  1  0  0  0  0
 29 28  1  0  0  0  0
 30 24  1  0  0  0  0
M  END
> <ID>
SCHEMBL21145868

> <InChIKey>
DTVBQWRWDXGVMD-UHFFFAOYSA-N

> <MW>
424.396

> <Series_Name>
Series_18

$$$$
SCHEMBL21145872
  Mrv1719007181907492D 0   0.00000     0.00000     0

 31 33  0  0  0  0              1 V2000 
    5.2483   -6.4631    0.0000 C   0  0  0  0  0  0  0  0  0  0  0  0
    5.9341   -6.0627    0.0000 N   0  0  0  0  0  0  0  0  0  0  0  0
    5.2566   -7.2996    0.0000 C   0  0  0  0  0  0  0  0  0  0  0  0
    5.9736   -7.7065    0.0000 C   0  0  0  0  0  0  0  0  0  0  0  0
    6.6761   -6.4662    0.0000 C   0  0  0  0  0  0  0  0  0  0  0  0
    6.6810   -7.2939    0.0000 C   0  0  0  0  0  0  0  0  0  0  0  0
    6.1454   -8.5429    0.0000 O   0  0  0  0  0  0  0  0  0  0  0  0
    5.2475   -4.8157    0.0000 C   0  0  0  0  0  0  0  0  0  0  0  0
    5.9719   -5.3171    0.0000 C   0  0  0  0  0  0  0  0  0  0  0  0
    4.8134   -5.5300    0.0000 F   0  0  0  0  0  0  0  0  0  0  0  0
    4.3909   -4.8134    0.0000 F   0  0  0  0  0  0  0  0  0  0  0  0
    5.2464   -3.9907    0.0000 C   0  0  0  0  0  0  0  0  0  0  0  0
    4.5319   -3.5826    0.0000 C   0  0  0  0  0  0  0  0  0  0  0  0
    3.8475   -2.3661    0.0000 C   0  0  0  0  0  0  0  0  0  0  0  0
    4.5368   -2.7543    0.0000 C   0  0  0  0  0  0  0  0  0  0  0  0
    3.0681   -2.9946    0.0000 N   0  0  0  0  0  0  0  0  0  0  0  0
    5.2311   -2.3651    0.0000 C   0  0  0  0  0  0  0  0  0  0  0  0
    5.9450   -2.7432    0.0000 C   0  0  0  0  0  0  0  0  0  0  0  0
    5.9388   -3.5834    0.0000 C   0  0  0  0  0  0  0  0  0  0  0  0
    6.8011   -4.0096    0.0000 Cl  0  0  0  0  0  0  0  0  0  0  0  0
    6.6506   -4.8318    0.0000 O   0  0  0  0  0  0  0  0  0  0  0  0
    0.2204   -2.7558    0.0000 F   0  0  0  0  0  0  0  0  0  0  0  0
    0.9498   -2.3455    0.0000 C   0  0  0  0  0  0  0  0  0  0  0  0
    0.9513   -1.5114    0.0000 C   0  0  0  0  0  0  0  0  0  0  0  0
    0.2204   -1.1023    0.0000 F   0  0  0  0  0  0  0  0  0  0  0  0
    1.6599   -1.1056    0.0000 C   0  0  0  0  0  0  0  0  0  0  0  0
    1.6535   -0.2939    0.0000 F   0  0  0  0  0  0  0  0  0  0  0  0
    2.3757   -1.5082    0.0000 C   0  0  0  0  0  0  0  0  0  0  0  0
    2.3831   -2.3445    0.0000 C   0  0  0  0  0  0  0  0  0  0  0  0
    1.6657   -2.7540    0.0000 C   0  0  0  0  0  0  0  0  0  0  0  0
    3.7846   -1.5249    0.0000 O   0  0  0  0  0  0  0  0  0  0  0  0
  1  2  1  0  0  0  0
  1  3  1  0  0  0  0
  2  5  1  0  0  0  0
  2  9  1  0  0  0  0
  3  4  1  0  0  0  0
  4  7  1  0  0  0  0
  5  6  1  0  0  0  0
  6  4  1  0  0  0  0
  8  9  1  0  0  0  0
  8 10  1  0  0  0  0
  8 12  1  0  0  0  0
  9 21  2  0  0  0  0
 11  8  1  0  0  0  0
 12 13  1  0  0  0  0
 12 19  2  0  0  0  0
 13 15  2  0  0  0  0
 14 15  1  0  0  0  0
 14 16  1  0  0  0  0
 15 17  1  0  0  0  0
 17 18  2  0  0  0  0
 19 20  1  0  0  0  0
 19 18  1  0  0  0  0
 22 23  1  0  0  0  0
 23 30  2  0  0  0  0
 24 23  1  0  0  0  0
 24 26  2  0  0  0  0
 25 24  1  0  0  0  0
 26 27  1  0  0  0  0
 26 28  1  0  0  0  0
 28 29  2  0  0  0  0
 29 16  1  0  0  0  0
 29 30  1  0  0  0  0
 31 14  2  0  0  0  0
M  END
> <ID>
SCHEMBL21145872

> <InChIKey>
KIUHBMBTUJJTOW-UHFFFAOYSA-N

> <MW>
462.8

> <Series_Name>
Series_18

$$$$
SCHEMBL21145880
  Mrv1719007181907502D 0   0.00000     0.00000     0

 35 38  0  0  0  0              1 V2000 
   14.9806  -26.9163    0.0000 C   0  0  0  0  0  0  0  0  0  0  0  0
   14.9755  -26.1083    0.0000 C   0  0  0  0  0  0  0  0  0  0  0  0
   15.6559  -25.7000    0.0000 N   0  0  0  0  0  0  0  0  0  0  0  0
   15.6762  -27.3469    0.0000 O   0  0  0  0  0  0  0  0  0  0  0  0
   16.3853  -26.9246    0.0000 C   0  0  0  0  0  0  0  0  0  0  0  0
   16.3966  -26.0917    0.0000 C   0  0  0  0  0  0  0  0  0  0  0  0
   15.6356  -23.2195    0.0000 N   0  0  0  0  0  0  0  0  0  0  0  0
   14.9671  -23.6420    0.0000 C   0  0  0  0  0  0  0  0  0  0  0  0
   14.9580  -24.4514    0.0000 C   0  0  0  0  0  0  0  0  0  0  0  0
   15.6623  -24.8653    0.0000 C   0  0  0  0  0  0  0  0  0  0  0  0
   16.3753  -23.6218    0.0000 C   0  0  0  0  0  0  0  0  0  0  0  0
   16.3808  -24.4585    0.0000 C   0  0  0  0  0  0  0  0  0  0  0  0
   14.9541  -21.9948    0.0000 C   0  0  0  0  0  0  0  0  0  0  0  0
   15.6668  -22.4471    0.0000 C   0  0  0  0  0  0  0  0  0  0  0  0
   14.5173  -22.7112    0.0000 F   0  0  0  0  0  0  0  0  0  0  0  0
   14.1106  -22.0199    0.0000 F   0  0  0  0  0  0  0  0  0  0  0  0
   14.9290  -21.1649    0.0000 C   0  0  0  0  0  0  0  0  0  0  0  0
   14.2238  -19.9678    0.0000 C   0  0  0  0  0  0  0  0  0  0  0  0
   14.2237  -20.7817    0.0000 C   0  0  0  0  0  0  0  0  0  0  0  0
   13.5681  -19.5726    0.0000 C   0  0  0  0  0  0  0  0  0  0  0  0
   12.7687  -20.2002    0.0000 N   0  0  0  0  0  0  0  0  0  0  0  0
   13.4803  -18.7260    0.0000 O   0  0  0  0  0  0  0  0  0  0  0  0
   14.9387  -19.5305    0.0000 C   0  0  0  0  0  0  0  0  0  0  0  0
   15.6477  -19.9317    0.0000 C   0  0  0  0  0  0  0  0  0  0  0  0
   16.3472  -21.1659    0.0000 F   0  0  0  0  0  0  0  0  0  0  0  0
   15.6391  -20.7627    0.0000 C   0  0  0  0  0  0  0  0  0  0  0  0
   16.3675  -21.9996    0.0000 O   0  0  0  0  0  0  0  0  0  0  0  0
   10.6432  -18.7505    0.0000 C   0  0  0  0  0  0  0  0  0  0  0  0
   10.6462  -19.5686    0.0000 C   0  0  0  0  0  0  0  0  0  0  0  0
    9.9222  -18.3397    0.0000 F   0  0  0  0  0  0  0  0  0  0  0  0
   11.3609  -18.3297    0.0000 C   0  0  0  0  0  0  0  0  0  0  0  0
   12.0852  -18.7246    0.0000 C   0  0  0  0  0  0  0  0  0  0  0  0
   12.0877  -19.5529    0.0000 C   0  0  0  0  0  0  0  0  0  0  0  0
   11.3653  -19.9540    0.0000 C   0  0  0  0  0  0  0  0  0  0  0  0
    9.9425  -19.9866    0.0000 C   0  0  0  0  0  0  0  0  0  0  0  0
  1  2  1  0  0  0  0
  1  4  1  0  0  0  0
  3  2  1  0  0  0  0
  3  6  1  0  0  0  0
  3 10  1  0  0  0  0
  4  5  1  0  0  0  0
  5  6  1  0  0  0  0
  7  8  1  0  0  0  0
  7 11  1  0  0  0  0
  7 14  1  0  0  0  0
  8  9  1  0  0  0  0
  9 10  1  0  0  0  0
 11 12  1  0  0  0  0
 12 10  1  0  0  0  0
 13 14  1  0  0  0  0
 13 15  1  0  0  0  0
 14 27  2  0  0  0  0
 16 13  1  0  0  0  0
 17 13  1  0  0  0  0
 17 26  1  0  0  0  0
 18 19  1  0  0  0  0
 18 23  2  0  0  0  0
 19 17  2  0  0  0  0
 20 18  1  0  0  0  0
 20 21  1  0  0  0  0
 22 20  2  0  0  0  0
 23 24  1  0  0  0  0
 25 26  1  0  0  0  0
 26 24  2  0  0  0  0
 28 29  2  0  0  0  0
 28 31  1  0  0  0  0
 29 35  1  0  0  0  0
 29 34  1  0  0  0  0
 30 28  1  0  0  0  0
 31 32  2  0  0  0  0
 33 32  1  0  0  0  0
 33 21  1  0  0  0  0
 34 33  2  0  0  0  0
M  END
> <ID>
SCHEMBL21145880

> <InChIKey>
MHQBBEZHGRKBTD-UHFFFAOYSA-N

> <MW>
493.503

> <Series_Name>
Series_18

$$$$
SCHEMBL21145888
  Mrv1719007181907502D 0   0.00000     0.00000     0

 35 38  0  0  1  0              1 V2000 
   12.0412  -16.6171    0.0000 C   0  0  0  0  0  0  0  0  0  0  0  0
   12.7022  -17.0321    0.0000 C   0  0  0  0  0  0  0  0  0  0  0  0
   13.6741  -16.6449    0.0000 N   0  0  0  0  0  0  0  0  0  0  0  0
   12.7471  -17.8670    0.0000 O   0  0  0  0  0  0  0  0  0  0  0  0
   12.7369  -14.6639    0.0000 C   0  0  2  0  0  0  0  0  0  0  0  0
   13.4002  -14.1377    0.0000 N   0  0  0  0  0  0  0  0  0  0  0  0
   13.2148  -15.1136    0.0000 C   0  0  0  0  0  0  0  0  0  0  0  0
   13.8279  -15.1022    0.0000 C   0  0  0  0  0  0  0  0  0  0  0  0
   14.0992  -14.5681    0.0000 C   0  0  0  0  0  0  0  0  0  0  0  0
   14.1833  -15.3820    0.0000 C   0  0  0  0  0  0  0  0  0  0  0  0
   13.4819  -15.8048    0.0000 C   0  0  2  0  0  0  0  0  0  0  0  0
   12.7707  -15.4045    0.0000 C   0  0  0  0  0  0  0  0  0  0  0  0
   12.6989  -12.9135    0.0000 C   0  0  0  0  0  0  0  0  0  0  0  0
   13.4139  -13.3431    0.0000 C   0  0  0  0  0  0  0  0  0  0  0  0
   12.2625  -13.6109    0.0000 F   0  0  0  0  0  0  0  0  0  0  0  0
   11.8411  -12.8945    0.0000 F   0  0  0  0  0  0  0  0  0  0  0  0
   11.9741  -11.6659    0.0000 C   0  0  0  0  0  0  0  0  0  0  0  0
   12.6968  -12.0789    0.0000 C   0  0  0  0  0  0  0  0  0  0  0  0
   11.9513  -10.8302    0.0000 C   0  0  0  0  0  0  0  0  0  0  0  0
   11.2966  -10.4432    0.0000 C   0  0  0  0  0  0  0  0  0  0  0  0
   10.4821  -11.0931    0.0000 N   0  0  0  0  0  0  0  0  0  0  0  0
   11.2090   -9.5866    0.0000 O   0  0  0  0  0  0  0  0  0  0  0  0
   12.6791  -10.4139    0.0000 C   0  0  0  0  0  0  0  0  0  0  0  0
   13.3790  -10.8204    0.0000 C   0  0  0  0  0  0  0  0  0  0  0  0
   13.4161  -11.6656    0.0000 C   0  0  0  0  0  0  0  0  0  0  0  0
   14.1166  -12.0729    0.0000 F   0  0  0  0  0  0  0  0  0  0  0  0
   14.1166  -12.8945    0.0000 O   0  0  0  0  0  0  0  0  0  0  0  0
    8.3532  -10.4462    0.0000 C   0  0  0  0  0  0  0  0  0  0  0  0
    8.3572   -9.6041    0.0000 C   0  0  0  0  0  0  0  0  0  0  0  0
    7.6061   -9.1863    0.0000 F   0  0  0  0  0  0  0  0  0  0  0  0
    9.0697   -9.1882    0.0000 C   0  0  0  0  0  0  0  0  0  0  0  0
    9.7828   -9.6028    0.0000 C   0  0  0  0  0  0  0  0  0  0  0  0
    9.7909  -10.4450    0.0000 C   0  0  0  0  0  0  0  0  0  0  0  0
    9.0701  -10.8469    0.0000 C   0  0  0  0  0  0  0  0  0  0  0  0
    7.6214  -10.8673    0.0000 C   0  0  0  0  0  0  0  0  0  0  0  0
  1  2  1  0  0  0  0
  2  4  2  0  0  0  0
  3  2  1  0  0  0  0
  5  6  1  6  0  0  0
  5  7  1  0  0  0  0
  5 12  1  0  0  0  0
  6  9  1  0  0  0  0
  6 14  1  0  0  0  0
  8  7  1  0  0  0  0
  9  8  1  0  0  0  0
 11 10  1  0  0  0  0
 10  9  1  0  0  0  0
 11  3  1  1  0  0  0
 11 12  1  0  0  0  0
 13 14  1  0  0  0  0
 13 15  1  0  0  0  0
 14 27  2  0  0  0  0
 16 13  1  0  0  0  0
 17 18  2  0  0  0  0
 17 19  1  0  0  0  0
 18 13  1  0  0  0  0
 19 23  2  0  0  0  0
 20 19  1  0  0  0  0
 20 21  1  0  0  0  0
 22 20  2  0  0  0  0
 23 24  1  0  0  0  0
 24 25  2  0  0  0  0
 25 26  1  0  0  0  0
 25 18  1  0  0  0  0
 28 29  2  0  0  0  0
 28 34  1  0  0  0  0
 29 30  1  0  0  0  0
 29 31  1  0  0  0  0
 31 32  2  0  0  0  0
 33 21  1  0  0  0  0
 33 32  1  0  0  0  0
 34 33  2  0  0  0  0
 35 28  1  0  0  0  0
M  END
> <ID>
SCHEMBL21145888

> <InChIKey>
XBJRBBYFHFFQCZ-PAMZHZACSA-N

> <MW>
491.487

> <Series_Name>
Series_18

$$$$
SCHEMBL21145890
  Mrv1719007181907502D 0   0.00000     0.00000     0

 35 38  0  0  0  0              1 V2000 
    5.6711   -8.1718    0.0000 C   0  0  0  0  0  0  0  0  0  0  0  0
    5.1043   -7.3705    0.0000 N   0  0  0  0  0  0  0  0  0  0  0  0
    6.6049   -8.1260    0.0000 N   0  0  0  0  0  0  0  0  0  0  0  0
    5.0839   -8.8201    0.0000 O   0  0  0  0  0  0  0  0  0  0  0  0
    6.6648   -7.3674    0.0000 C   0  0  0  0  0  0  0  0  0  0  0  0
    6.0140   -6.8604    0.0000 C   0  0  0  0  0  0  0  0  0  0  0  0
    5.2798   -5.6575    0.0000 C   0  0  0  0  0  0  0  0  0  0  0  0
    5.9617   -5.2267    0.0000 N   0  0  0  0  0  0  0  0  0  0  0  0
    5.2905   -6.4760    0.0000 C   0  0  0  0  0  0  0  0  0  0  0  0
    6.6949   -6.4622    0.0000 C   0  0  0  0  0  0  0  0  0  0  0  0
    6.6942   -5.6312    0.0000 C   0  0  0  0  0  0  0  0  0  0  0  0
    7.4318   -7.1052    0.0000 O   0  0  0  0  0  0  0  0  0  0  0  0
    5.2526   -3.9771    0.0000 C   0  0  0  0  0  0  0  0  0  0  0  0
    4.8388   -4.6755    0.0000 F   0  0  0  0  0  0  0  0  0  0  0  0
    4.4306   -3.9609    0.0000 F   0  0  0  0  0  0  0  0  0  0  0  0
    5.2565   -3.1320    0.0000 C   0  0  0  0  0  0  0  0  0  0  0  0
    4.5227   -1.9105    0.0000 C   0  0  0  0  0  0  0  0  0  0  0  0
    4.5236   -2.7143    0.0000 C   0  0  0  0  0  0  0  0  0  0  0  0
    3.9098   -1.5398    0.0000 C   0  0  0  0  0  0  0  0  0  0  0  0
    3.0830   -2.1540    0.0000 N   0  0  0  0  0  0  0  0  0  0  0  0
    3.7976   -0.6737    0.0000 O   0  0  0  0  0  0  0  0  0  0  0  0
    5.9322   -2.7252    0.0000 C   0  0  0  0  0  0  0  0  0  0  0  0
    6.6763   -3.1238    0.0000 F   0  0  0  0  0  0  0  0  0  0  0  0
    5.9878   -4.4136    0.0000 C   0  0  0  0  0  0  0  0  0  0  0  0
    6.6763   -3.9404    0.0000 O   0  0  0  0  0  0  0  0  0  0  0  0
    5.9227   -1.8744    0.0000 C   0  0  0  0  0  0  0  0  0  0  0  0
    5.2503   -1.5032    0.0000 C   0  0  0  0  0  0  0  0  0  0  0  0
    0.9669   -0.7002    0.0000 C   0  0  0  0  0  0  0  0  0  0  0  0
    0.9639   -1.5249    0.0000 C   0  0  0  0  0  0  0  0  0  0  0  0
    0.2246   -0.2859    0.0000 F   0  0  0  0  0  0  0  0  0  0  0  0
    1.6824   -0.2897    0.0000 C   0  0  0  0  0  0  0  0  0  0  0  0
    2.4042   -0.6737    0.0000 C   0  0  0  0  0  0  0  0  0  0  0  0
    2.3968   -1.4987    0.0000 C   0  0  0  0  0  0  0  0  0  0  0  0
    1.6794   -1.9269    0.0000 C   0  0  0  0  0  0  0  0  0  0  0  0
    0.2255   -1.9547    0.0000 C   0  0  0  0  0  0  0  0  0  0  0  0
  1  2  1  0  0  0  0
  1  3  1  0  0  0  0
  4  1  2  0  0  0  0
  5  6  1  0  0  0  0
  5 12  2  0  0  0  0
  5  3  1  0  0  0  0
  6  2  1  0  0  0  0
  6 10  1  0  0  0  0
  7  8  1  0  0  0  0
  7  9  1  0  0  0  0
  8 24  1  0  0  0  0
  9  6  1  0  0  0  0
 10 11  1  0  0  0  0
 11  8  1  0  0  0  0
 13 14  1  0  0  0  0
 13 16  1  0  0  0  0
 13 24  1  0  0  0  0
 15 13  1  0  0  0  0
 16 22  2  0  0  0  0
 17 18  2  0  0  0  0
 17 27  1  0  0  0  0
 18 16  1  0  0  0  0
 19 17  1  0  0  0  0
 19 20  1  0  0  0  0
 20 33  1  0  0  0  0
 21 19  2  0  0  0  0
 22 23  1  0  0  0  0
 24 25  2  0  0  0  0
 26 22  1  0  0  0  0
 27 26  2  0  0  0  0
 28 29  1  0  0  0  0
 28 31  2  0  0  0  0
 29 34  2  0  0  0  0
 30 28  1  0  0  0  0
 32 31  1  0  0  0  0
 33 32  2  0  0  0  0
 34 33  1  0  0  0  0
 35 29  1  0  0  0  0
M  END
> <ID>
SCHEMBL21145890

> <InChIKey>
OLQJSSCYXHIQIO-UHFFFAOYSA-N

> <MW>
492.431

> <Series_Name>
Series_18

$$$$
SCHEMBL21145893
  Mrv1719007181907502D 0   0.00000     0.00000     0

 31 33  0  0  1  0              1 V2000 
    5.3224   -6.4044    0.0000 C   0  0  0  0  0  0  0  0  0  0  0  0
    5.2854   -5.5836    0.0000 C   0  0  1  0  0  0  0  0  0  0  0  0
    4.6248   -5.2048    0.0000 C   0  0  0  0  0  0  0  0  0  0  0  0
    5.9803   -5.1830    0.0000 N   0  0  0  0  0  0  0  0  0  0  0  0
    6.7224   -5.5813    0.0000 C   0  0  0  0  0  0  0  0  0  0  0  0
    6.7503   -6.3999    0.0000 C   0  0  0  0  0  0  0  0  0  0  0  0
    6.0182   -6.7951    0.0000 C   0  0  2  0  0  0  0  0  0  0  0  0
    5.2623   -3.9726    0.0000 C   0  0  0  0  0  0  0  0  0  0  0  0
    5.9911   -4.3716    0.0000 C   0  0  0  0  0  0  0  0  0  0  0  0
    4.8640   -4.6647    0.0000 F   0  0  0  0  0  0  0  0  0  0  0  0
    4.4454   -3.9669    0.0000 F   0  0  0  0  0  0  0  0  0  0  0  0
    5.2864   -3.1266    0.0000 C   0  0  0  0  0  0  0  0  0  0  0  0
    4.5857   -2.7082    0.0000 C   0  0  0  0  0  0  0  0  0  0  0  0
    3.9056   -1.5390    0.0000 C   0  0  0  0  0  0  0  0  0  0  0  0
    3.0899   -2.1529    0.0000 N   0  0  0  0  0  0  0  0  0  0  0  0
    3.8075   -0.6977    0.0000 O   0  0  0  0  0  0  0  0  0  0  0  0
    4.5455   -1.8920    0.0000 C   0  0  0  0  0  0  0  0  0  0  0  0
    5.2833   -1.4998    0.0000 C   0  0  0  0  0  0  0  0  0  0  0  0
    5.9866   -1.8939    0.0000 C   0  0  0  0  0  0  0  0  0  0  0  0
    6.0229   -2.7165    0.0000 C   0  0  0  0  0  0  0  0  0  0  0  0
    6.6980   -3.1298    0.0000 F   0  0  0  0  0  0  0  0  0  0  0  0
    6.6980   -3.9669    0.0000 O   0  0  0  0  0  0  0  0  0  0  0  0
    0.9678   -1.5141    0.0000 C   0  0  0  0  0  0  0  0  0  0  0  0
    0.2514   -1.9366    0.0000 C   0  0  0  0  0  0  0  0  0  0  0  0
    0.2392   -0.2990    0.0000 F   0  0  0  0  0  0  0  0  0  0  0  0
    0.9564   -0.6852    0.0000 C   0  0  0  0  0  0  0  0  0  0  0  0
    1.6834   -0.2828    0.0000 C   0  0  0  0  0  0  0  0  0  0  0  0
    2.4069   -0.6835    0.0000 C   0  0  0  0  0  0  0  0  0  0  0  0
    2.4048   -1.5085    0.0000 C   0  0  0  0  0  0  0  0  0  0  0  0
    1.6816   -1.9096    0.0000 C   0  0  0  0  0  0  0  0  0  0  0  0
    6.2096   -7.6349    0.0000 O   0  0  0  0  0  0  0  0  0  0  0  0
  2  1  1  0  0  0  0
  2  3  1  1  0  0  0
  2  4  1  0  0  0  0
  4  9  1  0  0  0  0
  5  4  1  0  0  0  0
  5  6  1  0  0  0  0
  7  6  1  0  0  0  0
  7 31  1  6  0  0  0
  7  1  1  0  0  0  0
  8  9  1  0  0  0  0
  9 22  2  0  0  0  0
 10  8  1  0  0  0  0
 11  8  1  0  0  0  0
 12  8  1  0  0  0  0
 13 12  2  0  0  0  0
 13 17  1  0  0  0  0
 14 15  1  0  0  0  0
 14 17  1  0  0  0  0
 16 14  2  0  0  0  0
 17 18  2  0  0  0  0
 18 19  1  0  0  0  0
 19 20  2  0  0  0  0
 20 21  1  0  0  0  0
 20 12  1  0  0  0  0
 23 24  1  0  0  0  0
 23 30  1  0  0  0  0
 25 26  1  0  0  0  0
 26 23  2  0  0  0  0
 27 26  1  0  0  0  0
 27 28  2  0  0  0  0
 29 28  1  0  0  0  0
 29 15  1  0  0  0  0
 30 29  2  0  0  0  0
M  END
> <ID>
SCHEMBL21145893

> <InChIKey>
RGMWKXVCQJVSMQ-CJNGLKHVSA-N

> <MW>
438.423

> <Series_Name>
Series_18

$$$$
SCHEMBL21145902
  Mrv1719007181907522D 0   0.00000     0.00000     0

 33 36  0  0  1  0              1 V2000 
    6.4810   -6.9996    0.0000 C   0  0  2  0  0  0  0  0  0  0  0  0
    5.7570   -6.5833    0.0000 C   0  0  0  0  0  0  0  0  0  0  0  0
    5.7666   -5.8118    0.0000 C   0  0  2  0  0  0  0  0  0  0  0  0
    6.4526   -5.3184    0.0000 N   0  0  0  0  0  0  0  0  0  0  0  0
    6.1274   -6.4124    0.0000 C   0  0  0  0  0  0  0  0  0  0  0  0
    6.8068   -6.4087    0.0000 C   0  0  0  0  0  0  0  0  0  0  0  0
    7.1801   -5.7883    0.0000 C   0  0  1  0  0  0  0  0  0  0  0  0
    6.6677   -7.8409    0.0000 O   0  0  0  0  0  0  0  0  0  0  0  0
    7.1797   -6.5896    0.0000 C   0  0  0  0  0  0  0  0  0  0  0  0
    5.3184   -4.7905    0.0000 F   0  0  0  0  0  0  0  0  0  0  0  0
    5.7467   -4.0691    0.0000 C   0  0  0  0  0  0  0  0  0  0  0  0
    4.9079   -4.0670    0.0000 F   0  0  0  0  0  0  0  0  0  0  0  0
    5.0476   -2.8061    0.0000 C   0  0  0  0  0  0  0  0  0  0  0  0
    5.7593   -3.2233    0.0000 C   0  0  0  0  0  0  0  0  0  0  0  0
    4.3135   -1.5704    0.0000 C   0  0  0  0  0  0  0  0  0  0  0  0
    5.0365   -1.9628    0.0000 C   0  0  0  0  0  0  0  0  0  0  0  0
    5.7668   -1.5492    0.0000 C   0  0  0  0  0  0  0  0  0  0  0  0
    6.4587   -1.9506    0.0000 C   0  0  0  0  0  0  0  0  0  0  0  0
    6.4615   -2.8016    0.0000 C   0  0  0  0  0  0  0  0  0  0  0  0
    7.1956   -3.2263    0.0000 F   0  0  0  0  0  0  0  0  0  0  0  0
    6.4167   -4.4335    0.0000 C   0  0  0  0  0  0  0  0  0  0  0  0
    7.1760   -4.0670    0.0000 O   0  0  0  0  0  0  0  0  0  0  0  0
    0.9145   -1.7731    0.0000 C   0  0  0  0  0  0  0  0  0  0  0  0
    0.4115   -2.0011    0.0000 N   0  0  0  0  0  0  0  0  0  0  0  0
    1.4178   -1.5451    0.0000 C   0  0  0  0  0  0  0  0  0  0  0  0
    1.4151   -0.7059    0.0000 C   0  0  0  0  0  0  0  0  0  0  0  0
    0.6844   -0.2933    0.0000 F   0  0  0  0  0  0  0  0  0  0  0  0
    2.1488   -0.2810    0.0000 C   0  0  0  0  0  0  0  0  0  0  0  0
    2.8611   -0.6999    0.0000 C   0  0  0  0  0  0  0  0  0  0  0  0
    3.5587   -2.2095    0.0000 N   0  0  0  0  0  0  0  0  0  0  0  0
    2.8563   -1.5443    0.0000 C   0  0  0  0  0  0  0  0  0  0  0  0
    2.1454   -1.9627    0.0000 C   0  0  0  0  0  0  0  0  0  0  0  0
    4.2821   -0.7040    0.0000 O   0  0  0  0  0  0  0  0  0  0  0  0
  1  2  1  0  0  0  0
  1  8  1  1  0  0  0
  1  9  1  0  0  0  0
  3  4  1  6  0  0  0
  3  5  1  0  0  0  0
  3  2  1  0  0  0  0
  4 21  1  0  0  0  0
  5  6  1  0  0  0  0
  7  6  1  0  0  0  0
  7  4  1  6  0  0  0
  7  9  1  0  0  0  0
 10 11  1  0  0  0  0
 11 14  1  0  0  0  0
 11 21  1  0  0  0  0
 12 11  1  0  0  0  0
 13 14  1  0  0  0  0
 14 19  2  0  0  0  0
 15 16  1  0  0  0  0
 15 30  1  0  0  0  0
 16 13  2  0  0  0  0
 17 18  2  0  0  0  0
 17 16  1  0  0  0  0
 19 20  1  0  0  0  0
 19 18  1  0  0  0  0
 21 22  2  0  0  0  0
 23 24  3  0  0  0  0
 23 25  1  0  0  0  0
 25 32  2  0  0  0  0
 26 25  1  0  0  0  0
 26 28  2  0  0  0  0
 27 26  1  0  0  0  0
 29 28  1  0  0  0  0
 30 31  1  0  0  0  0
 31 29  2  0  0  0  0
 32 31  1  0  0  0  0
 33 15  2  0  0  0  0
M  END
> <ID>
SCHEMBL21145902

> <InChIKey>
GISJYWRFEBKMOY-FVQHAEBGSA-N

> <MW>
461.417

> <Series_Name>
Series_18

$$$$
SCHEMBL21145910
  Mrv1719007181907522D 0   0.00000     0.00000     0

 34 37  0  0  1  0              1 V2000 
   20.4560  -14.9597    0.0000 C   0  0  0  0  0  0  0  0  0  0  0  0
   20.4817  -14.1818    0.0000 C   0  0  2  0  0  0  0  0  0  0  0  0
   21.1444  -13.7309    0.0000 N   0  0  0  0  0  0  0  0  0  0  0  0
   20.8510  -14.8471    0.0000 C   0  0  0  0  0  0  0  0  0  0  0  0
   21.2884  -14.1812    0.0000 C   0  0  0  0  0  0  0  0  0  0  0  0
   21.5151  -14.7811    0.0000 C   0  0  1  0  0  0  0  0  0  0  0  0
   21.9013  -14.1594    0.0000 C   0  0  1  0  0  0  0  0  0  0  0  0
   21.8855  -14.9828    0.0000 C   0  0  0  0  0  0  0  0  0  0  0  0
   21.3736  -16.2419    0.0000 O   0  0  0  0  0  0  0  0  0  0  0  0
   21.1736  -15.3860    0.0000 C   0  0  0  0  0  0  0  0  0  0  0  0
   21.5045  -15.0115    0.0000 C   0  0  0  0  0  0  0  0  0  0  0  0
   20.4422  -12.4348    0.0000 C   0  0  0  0  0  0  0  0  0  0  0  0
   21.1805  -12.8852    0.0000 C   0  0  0  0  0  0  0  0  0  0  0  0
   20.0085  -13.1530    0.0000 F   0  0  0  0  0  0  0  0  0  0  0  0
   19.5900  -12.4355    0.0000 F   0  0  0  0  0  0  0  0  0  0  0  0
   19.7160  -11.1743    0.0000 C   0  0  0  0  0  0  0  0  0  0  0  0
   20.4444  -11.5879    0.0000 C   0  0  0  0  0  0  0  0  0  0  0  0
   19.7167  -10.3427    0.0000 C   0  0  0  0  0  0  0  0  0  0  0  0
   19.0462   -9.9529    0.0000 C   0  0  0  0  0  0  0  0  0  0  0  0
   18.2547  -10.5822    0.0000 N   0  0  0  0  0  0  0  0  0  0  0  0
   18.9722   -9.1074    0.0000 O   0  0  0  0  0  0  0  0  0  0  0  0
   20.3779   -9.9973    0.0000 C   0  0  0  0  0  0  0  0  0  0  0  0
   21.1564  -11.1785    0.0000 C   0  0  0  0  0  0  0  0  0  0  0  0
   21.8818  -11.5985    0.0000 F   0  0  0  0  0  0  0  0  0  0  0  0
   21.8618  -12.4355    0.0000 O   0  0  0  0  0  0  0  0  0  0  0  0
   21.1007  -10.3951    0.0000 C   0  0  0  0  0  0  0  0  0  0  0  0
   15.3879  -10.3354    0.0000 C   0  0  0  0  0  0  0  0  0  0  0  0
   16.0743   -9.9408    0.0000 C   0  0  0  0  0  0  0  0  0  0  0  0
   16.0966   -9.0891    0.0000 C   0  0  0  0  0  0  0  0  0  0  0  0
   15.3651   -8.6889    0.0000 F   0  0  0  0  0  0  0  0  0  0  0  0
   16.8241   -8.6746    0.0000 C   0  0  0  0  0  0  0  0  0  0  0  0
   17.5438   -9.0876    0.0000 C   0  0  0  0  0  0  0  0  0  0  0  0
   17.5423   -9.9292    0.0000 C   0  0  0  0  0  0  0  0  0  0  0  0
   16.8225  -10.3439    0.0000 C   0  0  0  0  0  0  0  0  0  0  0  0
  1 10  1  0  0  0  0
  2  1  1  0  0  0  0
  2  4  1  0  0  0  0
  2  3  1  6  0  0  0
  3 13  1  0  0  0  0
  4  5  1  0  0  0  0
  6  5  1  0  0  0  0
  6 11  1  1  0  0  0
  6  7  1  0  0  0  0
  7  3  1  6  0  0  0
  7  8  1  0  0  0  0
  9 10  1  0  0  0  0
 10  8  1  0  0  0  0
 12 13  1  0  0  0  0
 12 14  1  0  0  0  0
 12 17  1  0  0  0  0
 13 25  2  0  0  0  0
 15 12  1  0  0  0  0
 16 17  1  0  0  0  0
 16 18  2  0  0  0  0
 17 23  2  0  0  0  0
 18 22  1  0  0  0  0
 19 18  1  0  0  0  0
 19 20  1  0  0  0  0
 20 33  1  0  0  0  0
 21 19  2  0  0  0  0
 22 26  2  0  0  0  0
 23 24  1  0  0  0  0
 26 23  1  0  0  0  0
 27 28  1  0  0  0  0
 28 34  2  0  0  0  0
 29 28  1  0  0  0  0
 29 31  2  0  0  0  0
 30 29  1  0  0  0  0
 32 31  1  0  0  0  0
 33 32  2  0  0  0  0
 34 33  1  0  0  0  0
M  END
> <ID>
SCHEMBL21145910

> <InChIKey>
LQTUHPSENYAEJB-GECVOGJMSA-N

> <MW>
478.488

> <Series_Name>
Series_18

$$$$
SCHEMBL21145911
  Mrv1719007181907522D 0   0.00000     0.00000     0

 33 36  0  0  1  0              1 V2000 
   12.8417  -14.1567    0.0000 C   0  0  2  0  0  0  0  0  0  0  0  0
   13.5272  -13.7262    0.0000 N   0  0  0  0  0  0  0  0  0  0  0  0
   13.4874  -14.3826    0.0000 O   0  0  0  0  0  0  0  0  0  0  0  0
   13.2135  -14.8451    0.0000 C   0  0  0  0  0  0  0  0  0  0  0  0
   12.8284  -14.9540    0.0000 C   0  0  0  0  0  0  0  0  0  0  0  0
   13.4653  -15.3385    0.0000 C   0  0  0  0  0  0  0  0  0  0  0  0
   14.2519  -14.9717    0.0000 C   0  0  0  0  0  0  0  0  0  0  0  0
   13.8323  -14.8061    0.0000 C   0  0  0  0  0  0  0  0  0  0  0  0
   14.1990  -14.2439    0.0000 C   0  0  2  0  0  0  0  0  0  0  0  0
   13.5073  -16.2127    0.0000 O   0  0  0  0  0  0  0  0  0  0  0  0
   12.8189  -12.4464    0.0000 C   0  0  0  0  0  0  0  0  0  0  0  0
   13.5577  -12.8732    0.0000 C   0  0  0  0  0  0  0  0  0  0  0  0
   12.3933  -13.1492    0.0000 F   0  0  0  0  0  0  0  0  0  0  0  0
   11.9755  -12.4530    0.0000 F   0  0  0  0  0  0  0  0  0  0  0  0
   12.1071  -11.2057    0.0000 C   0  0  0  0  0  0  0  0  0  0  0  0
   12.8215  -11.6145    0.0000 C   0  0  0  0  0  0  0  0  0  0  0  0
   12.0999  -10.3760    0.0000 C   0  0  0  0  0  0  0  0  0  0  0  0
   11.3168   -9.9999    0.0000 C   0  0  0  0  0  0  0  0  0  0  0  0
   10.6427  -10.6228    0.0000 N   0  0  0  0  0  0  0  0  0  0  0  0
   11.3589   -9.1507    0.0000 O   0  0  0  0  0  0  0  0  0  0  0  0
   13.5357  -11.1979    0.0000 C   0  0  0  0  0  0  0  0  0  0  0  0
   14.2433  -11.6174    0.0000 F   0  0  0  0  0  0  0  0  0  0  0  0
   14.2234  -12.4530    0.0000 O   0  0  0  0  0  0  0  0  0  0  0  0
   13.5247  -10.3794    0.0000 C   0  0  0  0  0  0  0  0  0  0  0  0
   12.8182   -9.9799    0.0000 C   0  0  0  0  0  0  0  0  0  0  0  0
    8.5227   -9.9687    0.0000 C   0  0  0  0  0  0  0  0  0  0  0  0
    8.5257   -9.1398    0.0000 C   0  0  0  0  0  0  0  0  0  0  0  0
    7.7980   -8.7329    0.0000 F   0  0  0  0  0  0  0  0  0  0  0  0
    9.2265   -8.7473    0.0000 C   0  0  0  0  0  0  0  0  0  0  0  0
    9.9427   -9.1412    0.0000 C   0  0  0  0  0  0  0  0  0  0  0  0
    9.9554   -9.9667    0.0000 C   0  0  0  0  0  0  0  0  0  0  0  0
    9.2419  -10.3809    0.0000 C   0  0  0  0  0  0  0  0  0  0  0  0
    7.7682  -10.3839    0.0000 C   0  0  0  0  0  0  0  0  0  0  0  0
  1  2  1  6  0  0  0
  1  4  1  0  0  0  0
  1  5  1  0  0  0  0
  2 12  1  0  0  0  0
  3  4  1  0  0  0  0
  3  8  1  0  0  0  0
  5  6  1  0  0  0  0
  6 10  2  0  0  0  0
  7  6  1  0  0  0  0
  9  8  1  0  0  0  0
  9  2  1  6  0  0  0
  9  7  1  0  0  0  0
 11 12  1  0  0  0  0
 11 16  1  0  0  0  0
 12 23  2  0  0  0  0
 13 11  1  0  0  0  0
 14 11  1  0  0  0  0
 15 16  1  0  0  0  0
 16 21  2  0  0  0  0
 17 15  2  0  0  0  0
 17 18  1  0  0  0  0
 17 25  1  0  0  0  0
 18 20  2  0  0  0  0
 19 18  1  0  0  0  0
 21 22  1  0  0  0  0
 21 24  1  0  0  0  0
 25 24  2  0  0  0  0
 26 27  1  0  0  0  0
 26 32  2  0  0  0  0
 27 29  2  0  0  0  0
 28 27  1  0  0  0  0
 29 30  1  0  0  0  0
 30 31  2  0  0  0  0
 31 19  1  0  0  0  0
 31 32  1  0  0  0  0
 33 26  1  0  0  0  0
M  END
> <ID>
SCHEMBL21145911

> <InChIKey>
NHKYVHJLAHNPPY-IYBDPMFKSA-N

> <MW>
464.417

> <Series_Name>
Series_18

$$$$
SCHEMBL21145914
  Mrv1719007181907522D 0   0.00000     0.00000     0

 32 35  0  0  1  0              1 V2000 
   13.0989   -7.4315    0.0000 C   0  0  0  0  0  0  0  0  0  0  0  0
   13.1073   -6.6299    0.0000 C   0  0  2  0  0  0  0  0  0  0  0  0
   13.7850   -6.2104    0.0000 N   0  0  0  0  0  0  0  0  0  0  0  0
   13.5744   -7.3247    0.0000 C   0  0  0  0  0  0  0  0  0  0  0  0
   14.5035   -6.6382    0.0000 C   0  0  1  0  0  0  0  0  0  0  0  0
   14.0375   -7.3251    0.0000 C   0  0  0  0  0  0  0  0  0  0  0  0
   14.5141   -7.4447    0.0000 C   0  0  0  0  0  0  0  0  0  0  0  0
   13.7950   -7.8267    0.0000 C   0  0  2  0  0  0  0  0  0  0  0  0
   12.6652   -5.6810    0.0000 F   0  0  0  0  0  0  0  0  0  0  0  0
   13.0923   -4.9695    0.0000 C   0  0  0  0  0  0  0  0  0  0  0  0
   12.2579   -4.9683    0.0000 F   0  0  0  0  0  0  0  0  0  0  0  0
   12.3855   -3.7204    0.0000 C   0  0  0  0  0  0  0  0  0  0  0  0
   13.1075   -4.1289    0.0000 C   0  0  0  0  0  0  0  0  0  0  0  0
   12.3873   -2.8933    0.0000 C   0  0  0  0  0  0  0  0  0  0  0  0
   11.5975   -2.5165    0.0000 C   0  0  0  0  0  0  0  0  0  0  0  0
   10.9344   -3.1357    0.0000 N   0  0  0  0  0  0  0  0  0  0  0  0
   11.6470   -1.6493    0.0000 O   0  0  0  0  0  0  0  0  0  0  0  0
   13.1100   -2.4952    0.0000 C   0  0  0  0  0  0  0  0  0  0  0  0
   13.7954   -3.7251    0.0000 C   0  0  0  0  0  0  0  0  0  0  0  0
   14.4977   -4.1335    0.0000 F   0  0  0  0  0  0  0  0  0  0  0  0
   13.7245   -5.3155    0.0000 C   0  0  0  0  0  0  0  0  0  0  0  0
   14.4977   -4.9683    0.0000 O   0  0  0  0  0  0  0  0  0  0  0  0
   13.7824   -2.8866    0.0000 C   0  0  0  0  0  0  0  0  0  0  0  0
    7.9837   -2.9335    0.0000 Br  0  0  0  0  0  0  0  0  0  0  0  0
    8.8463   -2.4826    0.0000 C   0  0  0  0  0  0  0  0  0  0  0  0
    8.8439   -1.6562    0.0000 C   0  0  0  0  0  0  0  0  0  0  0  0
    8.1040   -1.2421    0.0000 F   0  0  0  0  0  0  0  0  0  0  0  0
    9.5568   -1.2528    0.0000 C   0  0  0  0  0  0  0  0  0  0  0  0
   10.2487   -1.6459    0.0000 C   0  0  0  0  0  0  0  0  0  0  0  0
   10.2440   -2.4837    0.0000 C   0  0  0  0  0  0  0  0  0  0  0  0
    9.5542   -2.8738    0.0000 C   0  0  0  0  0  0  0  0  0  0  0  0
   13.9988   -8.6741    0.0000 O   0  0  0  0  0  0  0  0  0  0  0  0
  2  1  1  0  0  0  0
  2  3  1  6  0  0  0
  2  4  1  0  0  0  0
  3 21  1  0  0  0  0
  5  6  1  0  0  0  0
  5  3  1  6  0  0  0
  5  7  1  0  0  0  0
  6  4  1  0  0  0  0
  8  7  1  0  0  0  0
  8  1  1  0  0  0  0
  8 32  1  6  0  0  0
  9 10  1  0  0  0  0
 10 13  1  0  0  0  0
 10 21  1  0  0  0  0
 11 10  1  0  0  0  0
 12 13  1  0  0  0  0
 12 14  2  0  0  0  0
 13 19  2  0  0  0  0
 14 15  1  0  0  0  0
 14 18  1  0  0  0  0
 15 17  2  0  0  0  0
 16 15  1  0  0  0  0
 16 30  1  0  0  0  0
 18 23  2  0  0  0  0
 19 20  1  0  0  0  0
 19 23  1  0  0  0  0
 21 22  2  0  0  0  0
 24 25  1  0  0  0  0
 25 31  2  0  0  0  0
 26 25  1  0  0  0  0
 26 28  2  0  0  0  0
 27 26  1  0  0  0  0
 28 29  1  0  0  0  0
 30 29  2  0  0  0  0
 31 30  1  0  0  0  0
M  END
> <ID>
SCHEMBL21145914

> <InChIKey>
OWRPJKPUUHAZHZ-QDMKHBRRSA-N

> <MW>
515.303

> <Series_Name>
Series_18

$$$$
SCHEMBL21145916
  Mrv1719007181907522D 0   0.00000     0.00000     0

 33 35  0  0  0  0              1 V2000 
   14.2355   -8.3582    0.0000 O   0  0  0  0  0  0  0  0  0  0  0  0
   14.9007   -7.6534    0.0000 C   0  0  0  0  0  0  0  0  0  0  0  0
   14.1727   -7.2261    0.0000 C   0  0  0  0  0  0  0  0  0  0  0  0
   14.1690   -6.4127    0.0000 C   0  0  0  0  0  0  0  0  0  0  0  0
   14.8655   -6.0053    0.0000 N   0  0  0  0  0  0  0  0  0  0  0  0
   15.5978   -6.3987    0.0000 C   0  0  0  0  0  0  0  0  0  0  0  0
   15.6014   -7.2477    0.0000 C   0  0  0  0  0  0  0  0  0  0  0  0
   15.3178   -8.3602    0.0000 C   0  0  0  0  0  0  0  0  0  0  0  0
   16.3422   -8.3680    0.0000 O   0  0  0  0  0  0  0  0  0  0  0  0
   14.1671   -4.7799    0.0000 C   0  0  0  0  0  0  0  0  0  0  0  0
   14.8762   -5.1839    0.0000 C   0  0  0  0  0  0  0  0  0  0  0  0
   13.7432   -5.4934    0.0000 F   0  0  0  0  0  0  0  0  0  0  0  0
   13.3298   -4.7845    0.0000 F   0  0  0  0  0  0  0  0  0  0  0  0
   14.1689   -3.9445    0.0000 C   0  0  0  0  0  0  0  0  0  0  0  0
   13.4549   -3.5383    0.0000 C   0  0  0  0  0  0  0  0  0  0  0  0
   13.4490   -2.7131    0.0000 C   0  0  0  0  0  0  0  0  0  0  0  0
   12.7981   -2.3292    0.0000 C   0  0  0  0  0  0  0  0  0  0  0  0
   11.9908   -2.9534    0.0000 N   0  0  0  0  0  0  0  0  0  0  0  0
   12.7194   -1.4964    0.0000 O   0  0  0  0  0  0  0  0  0  0  0  0
   14.1916   -2.3151    0.0000 C   0  0  0  0  0  0  0  0  0  0  0  0
   14.8979   -3.5364    0.0000 C   0  0  0  0  0  0  0  0  0  0  0  0
   15.5941   -3.9576    0.0000 F   0  0  0  0  0  0  0  0  0  0  0  0
   15.5941   -4.7845    0.0000 O   0  0  0  0  0  0  0  0  0  0  0  0
   14.8825   -2.7118    0.0000 C   0  0  0  0  0  0  0  0  0  0  0  0
    9.3399   -2.5292    0.0000 C   0  0  0  0  0  0  0  0  0  0  0  0
    8.8248   -2.7541    0.0000 N   0  0  0  0  0  0  0  0  0  0  0  0
    9.8549   -2.3045    0.0000 C   0  0  0  0  0  0  0  0  0  0  0  0
    9.8550   -1.4767    0.0000 C   0  0  0  0  0  0  0  0  0  0  0  0
    9.1162   -1.0829    0.0000 F   0  0  0  0  0  0  0  0  0  0  0  0
   10.5786   -1.0678    0.0000 C   0  0  0  0  0  0  0  0  0  0  0  0
   11.2884   -1.4730    0.0000 C   0  0  0  0  0  0  0  0  0  0  0  0
   11.2850   -2.3056    0.0000 C   0  0  0  0  0  0  0  0  0  0  0  0
   10.5788   -2.7127    0.0000 C   0  0  0  0  0  0  0  0  0  0  0  0
  1  2  1  0  0  0  0
  2  8  1  0  0  0  0
  3  4  1  0  0  0  0
  3  2  1  0  0  0  0
  4  5  1  0  0  0  0
  5 11  1  0  0  0  0
  6  5  1  0  0  0  0
  6  7  1  0  0  0  0
  7  2  1  0  0  0  0
  9  8  1  0  0  0  0
 10 11  1  0  0  0  0
 10 12  1  0  0  0  0
 10 14  1  0  0  0  0
 11 23  2  0  0  0  0
 13 10  1  0  0  0  0
 14 21  2  0  0  0  0
 15 14  1  0  0  0  0
 16 15  2  0  0  0  0
 16 20  1  0  0  0  0
 17 16  1  0  0  0  0
 17 18  1  0  0  0  0
 18 32  1  0  0  0  0
 19 17  2  0  0  0  0
 20 24  2  0  0  0  0
 21 22  1  0  0  0  0
 24 21  1  0  0  0  0
 25 26  3  0  0  0  0
 25 27  1  0  0  0  0
 27 33  2  0  0  0  0
 28 27  1  0  0  0  0
 28 30  2  0  0  0  0
 29 28  1  0  0  0  0
 31 30  1  0  0  0  0
 32 31  2  0  0  0  0
 33 32  1  0  0  0  0
M  END
> <ID>
SCHEMBL21145916

> <InChIKey>
RFMBDYSDMKXGDB-UHFFFAOYSA-N

> <MW>
465.405

> <Series_Name>
Series_18

$$$$
SCHEMBL21145917
  Mrv1719007181907522D 0   0.00000     0.00000     0

 33 36  0  0  1  0              1 V2000 
    5.3156   -5.7578    0.0000 C   0  0  2  0  0  0  0  0  0  0  0  0
    6.0053   -5.3247    0.0000 N   0  0  0  0  0  0  0  0  0  0  0  0
    6.6794   -5.8546    0.0000 C   0  0  1  0  0  0  0  0  0  0  0  0
    5.9853   -7.8269    0.0000 O   0  0  0  0  0  0  0  0  0  0  0  0
    5.9869   -6.9591    0.0000 C   0  0  0  0  0  0  0  0  0  0  0  0
    6.3577   -6.4841    0.0000 C   0  0  0  0  0  0  0  0  0  0  0  0
    6.1370   -5.8074    0.0000 C   0  0  0  0  0  0  0  0  0  0  0  0
    5.6830   -6.4539    0.0000 C   0  0  0  0  0  0  0  0  0  0  0  0
    5.3022   -6.5647    0.0000 C   0  0  0  0  0  0  0  0  0  0  0  0
    6.7393   -6.5793    0.0000 C   0  0  0  0  0  0  0  0  0  0  0  0
    5.2847   -4.0242    0.0000 C   0  0  0  0  0  0  0  0  0  0  0  0
    6.0162   -4.5027    0.0000 C   0  0  0  0  0  0  0  0  0  0  0  0
    4.8643   -4.7442    0.0000 F   0  0  0  0  0  0  0  0  0  0  0  0
    4.4439   -4.0436    0.0000 F   0  0  0  0  0  0  0  0  0  0  0  0
    5.2859   -3.1997    0.0000 C   0  0  0  0  0  0  0  0  0  0  0  0
    4.5831   -2.7854    0.0000 C   0  0  0  0  0  0  0  0  0  0  0  0
    3.7810   -1.5750    0.0000 C   0  0  0  0  0  0  0  0  0  0  0  0
    4.5790   -1.9555    0.0000 C   0  0  0  0  0  0  0  0  0  0  0  0
    3.1027   -2.2020    0.0000 N   0  0  0  0  0  0  0  0  0  0  0  0
    3.8234   -0.7206    0.0000 O   0  0  0  0  0  0  0  0  0  0  0  0
    5.2909   -1.5517    0.0000 C   0  0  0  0  0  0  0  0  0  0  0  0
    6.0172   -1.9621    0.0000 C   0  0  0  0  0  0  0  0  0  0  0  0
    6.0204   -2.7860    0.0000 C   0  0  0  0  0  0  0  0  0  0  0  0
    6.7059   -3.2028    0.0000 F   0  0  0  0  0  0  0  0  0  0  0  0
    6.7059   -4.0436    0.0000 O   0  0  0  0  0  0  0  0  0  0  0  0
    0.2402   -0.3002    0.0000 F   0  0  0  0  0  0  0  0  0  0  0  0
    0.9743   -0.7154    0.0000 C   0  0  0  0  0  0  0  0  0  0  0  0
    1.7013   -0.3133    0.0000 C   0  0  0  0  0  0  0  0  0  0  0  0
    2.4109   -1.5411    0.0000 C   0  0  0  0  0  0  0  0  0  0  0  0
    1.6927   -1.9604    0.0000 C   0  0  0  0  0  0  0  0  0  0  0  0
    0.9720   -1.5426    0.0000 C   0  0  0  0  0  0  0  0  0  0  0  0
    0.2102   -1.9586    0.0000 C   0  0  0  0  0  0  0  0  0  0  0  0
    2.3996   -0.7162    0.0000 C   0  0  0  0  0  0  0  0  0  0  0  0
  1  2  1  6  0  0  0
  1  9  1  0  0  0  0
  1  8  1  0  0  0  0
  2 12  1  0  0  0  0
  3  2  1  6  0  0  0
  3  6  1  0  0  0  0
  3 10  1  0  0  0  0
  4  5  2  0  0  0  0
  5  9  1  0  0  0  0
  5 10  1  0  0  0  0
  6  7  1  0  0  0  0
  7  8  1  0  0  0  0
 11 12  1  0  0  0  0
 11 13  1  0  0  0  0
 11 15  1  0  0  0  0
 12 25  2  0  0  0  0
 14 11  1  0  0  0  0
 15 23  2  0  0  0  0
 16 15  1  0  0  0  0
 17 18  1  0  0  0  0
 17 20  2  0  0  0  0
 18 16  2  0  0  0  0
 19 17  1  0  0  0  0
 21 22  2  0  0  0  0
 21 18  1  0  0  0  0
 23 22  1  0  0  0  0
 23 24  1  0  0  0  0
 26 27  1  0  0  0  0
 27 28  2  0  0  0  0
 27 31  1  0  0  0  0
 28 33  1  0  0  0  0
 29 19  1  0  0  0  0
 29 30  1  0  0  0  0
 31 30  2  0  0  0  0
 32 31  1  0  0  0  0
 33 29  2  0  0  0  0
M  END
> <ID>
SCHEMBL21145917

> <InChIKey>
FENNEWAHUQCKGA-CALCHBBNSA-N

> <MW>
462.445

> <Series_Name>
Series_18

$$$$
SCHEMBL21145961
  Mrv1719007181908112D 0   0.00000     0.00000     0

 29 31  0  0  0  0              1 V2000 
    5.2543   -5.6591    0.0000 C   0  0  0  0  0  0  0  0  0  0  0  0
    5.9305   -5.2426    0.0000 N   0  0  0  0  0  0  0  0  0  0  0  0
    5.2635   -6.4927    0.0000 C   0  0  0  0  0  0  0  0  0  0  0  0
    5.9660   -6.9051    0.0000 C   0  0  0  0  0  0  0  0  0  0  0  0
    6.6753   -6.4909    0.0000 C   0  0  0  0  0  0  0  0  0  0  0  0
    6.6718   -5.6659    0.0000 C   0  0  0  0  0  0  0  0  0  0  0  0
    6.1629   -7.7338    0.0000 O   0  0  0  0  0  0  0  0  0  0  0  0
    5.2580   -4.0114    0.0000 C   0  0  0  0  0  0  0  0  0  0  0  0
    4.8150   -4.7221    0.0000 F   0  0  0  0  0  0  0  0  0  0  0  0
    4.4060   -3.9970    0.0000 F   0  0  0  0  0  0  0  0  0  0  0  0
    4.5225   -2.7646    0.0000 C   0  0  0  0  0  0  0  0  0  0  0  0
    5.2560   -3.1750    0.0000 C   0  0  0  0  0  0  0  0  0  0  0  0
    4.5262   -1.9351    0.0000 C   0  0  0  0  0  0  0  0  0  0  0  0
    3.9134   -1.5704    0.0000 C   0  0  0  0  0  0  0  0  0  0  0  0
    3.0675   -2.1752    0.0000 N   0  0  0  0  0  0  0  0  0  0  0  0
    3.7926   -0.7064    0.0000 O   0  0  0  0  0  0  0  0  0  0  0  0
    5.2539   -1.5284    0.0000 C   0  0  0  0  0  0  0  0  0  0  0  0
    5.9549   -1.9308    0.0000 C   0  0  0  0  0  0  0  0  0  0  0  0
    5.9579   -2.7645    0.0000 C   0  0  0  0  0  0  0  0  0  0  0  0
    6.8077   -3.1883    0.0000 Cl  0  0  0  0  0  0  0  0  0  0  0  0
    5.9457   -4.4499    0.0000 C   0  0  0  0  0  0  0  0  0  0  0  0
    6.6555   -4.0156    0.0000 O   0  0  0  0  0  0  0  0  0  0  0  0
    0.9550   -0.6930    0.0000 C   0  0  0  0  0  0  0  0  0  0  0  0
    0.9598   -1.5304    0.0000 C   0  0  0  0  0  0  0  0  0  0  0  0
    0.2231   -0.2789    0.0000 F   0  0  0  0  0  0  0  0  0  0  0  0
    1.6733   -0.2830    0.0000 C   0  0  0  0  0  0  0  0  0  0  0  0
    2.3875   -1.5221    0.0000 C   0  0  0  0  0  0  0  0  0  0  0  0
    1.6772   -1.9237    0.0000 C   0  0  0  0  0  0  0  0  0  0  0  0
    2.3773   -0.7014    0.0000 C   0  0  0  0  0  0  0  0  0  0  0  0
  1  2  1  0  0  0  0
  1  3  1  0  0  0  0
  2 21  1  0  0  0  0
  3  4  1  0  0  0  0
  5  6  1  0  0  0  0
  5  4  1  0  0  0  0
  6  2  1  0  0  0  0
  7  4  1  0  0  0  0
  8  9  1  0  0  0  0
  8 12  1  0  0  0  0
  8 21  1  0  0  0  0
 10  8  1  0  0  0  0
 11 12  1  0  0  0  0
 11 13  2  0  0  0  0
 12 19  2  0  0  0  0
 13 17  1  0  0  0  0
 14 13  1  0  0  0  0
 14 15  1  0  0  0  0
 16 14  2  0  0  0  0
 17 18  2  0  0  0  0
 19 20  1  0  0  0  0
 19 18  1  0  0  0  0
 21 22  2  0  0  0  0
 23 24  1  0  0  0  0
 23 26  2  0  0  0  0
 24 28  2  0  0  0  0
 25 23  1  0  0  0  0
 26 29  1  0  0  0  0
 27 15  1  0  0  0  0
 27 28  1  0  0  0  0
 29 27  2  0  0  0  0
M  END
> <ID>
SCHEMBL21145961

> <InChIKey>
PELXAVXPRQAEPA-UHFFFAOYSA-N

> <MW>
426.82

> <Series_Name>
Series_18

$$$$
SCHEMBL21146032
  Mrv1719007181908152D 0   0.00000     0.00000     0

 30 32  0  0  0  0              1 V2000 
    6.2382   -6.9015    0.0000 C   0  0  0  0  0  0  0  0  0  0  0  0
    5.5147   -6.4843    0.0000 C   0  0  0  0  0  0  0  0  0  0  0  0
    6.2118   -5.2475    0.0000 N   0  0  0  0  0  0  0  0  0  0  0  0
    5.5280   -5.6687    0.0000 C   0  0  0  0  0  0  0  0  0  0  0  0
    6.9388   -5.6547    0.0000 C   0  0  0  0  0  0  0  0  0  0  0  0
    6.9471   -6.4911    0.0000 C   0  0  0  0  0  0  0  0  0  0  0  0
    6.4250   -7.7323    0.0000 O   0  0  0  0  0  0  0  0  0  0  0  0
    5.4996   -4.0440    0.0000 C   0  0  0  0  0  0  0  0  0  0  0  0
    6.2581   -4.4987    0.0000 C   0  0  0  0  0  0  0  0  0  0  0  0
    5.0992   -4.7284    0.0000 F   0  0  0  0  0  0  0  0  0  0  0  0
    4.6913   -4.0052    0.0000 F   0  0  0  0  0  0  0  0  0  0  0  0
    5.5152   -3.1826    0.0000 C   0  0  0  0  0  0  0  0  0  0  0  0
    4.8100   -2.7649    0.0000 C   0  0  0  0  0  0  0  0  0  0  0  0
    4.8048   -1.9460    0.0000 C   0  0  0  0  0  0  0  0  0  0  0  0
    4.1700   -1.5628    0.0000 C   0  0  0  0  0  0  0  0  0  0  0  0
    3.3562   -1.9470    0.0000 N   0  0  0  0  0  0  0  0  0  0  0  0
    4.0794   -0.7046    0.0000 O   0  0  0  0  0  0  0  0  0  0  0  0
    5.5280   -1.5490    0.0000 C   0  0  0  0  0  0  0  0  0  0  0  0
    6.2374   -1.9417    0.0000 C   0  0  0  0  0  0  0  0  0  0  0  0
    6.2470   -2.7657    0.0000 C   0  0  0  0  0  0  0  0  0  0  0  0
    7.0774   -3.1939    0.0000 Cl  0  0  0  0  0  0  0  0  0  0  0  0
    6.9349   -4.0052    0.0000 O   0  0  0  0  0  0  0  0  0  0  0  0
    3.3820   -2.7721    0.0000 C   0  0  0  0  0  0  0  0  0  0  0  0
    1.2473   -1.5328    0.0000 C   0  0  0  0  0  0  0  0  0  0  0  0
    1.2532   -0.7074    0.0000 C   0  0  0  0  0  0  0  0  0  0  0  0
    0.4020   -0.3060    0.0000 Cl  0  0  0  0  0  0  0  0  0  0  0  0
    1.9795   -0.3012    0.0000 C   0  0  0  0  0  0  0  0  0  0  0  0
    2.6771   -0.7006    0.0000 C   0  0  0  0  0  0  0  0  0  0  0  0
    2.6823   -1.5304    0.0000 C   0  0  0  0  0  0  0  0  0  0  0  0
    1.9742   -1.9374    0.0000 C   0  0  0  0  0  0  0  0  0  0  0  0
  1  2  1  0  0  0  0
  3  4  1  0  0  0  0
  3  9  1  0  0  0  0
  4  2  1  0  0  0  0
  5  3  1  0  0  0  0
  5  6  1  0  0  0  0
  6  1  1  0  0  0  0
  7  1  1  0  0  0  0
  8  9  1  0  0  0  0
  8 10  1  0  0  0  0
  8 12  1  0  0  0  0
  9 22  2  0  0  0  0
 11  8  1  0  0  0  0
 12 20  2  0  0  0  0
 13 12  1  0  0  0  0
 14 13  2  0  0  0  0
 14 18  1  0  0  0  0
 15 14  1  0  0  0  0
 15 16  1  0  0  0  0
 16 23  1  0  0  0  0
 17 15  2  0  0  0  0
 18 19  2  0  0  0  0
 20 19  1  0  0  0  0
 20 21  1  0  0  0  0
 24 25  1  0  0  0  0
 24 30  2  0  0  0  0
 25 27  2  0  0  0  0
 26 25  1  0  0  0  0
 27 28  1  0  0  0  0
 28 29  2  0  0  0  0
 29 16  1  0  0  0  0
 30 29  1  0  0  0  0
M  END
> <ID>
SCHEMBL21146032

> <InChIKey>
WAWHWHXZHAIYCO-UHFFFAOYSA-N

> <MW>
457.3

> <Series_Name>
Series_18

$$$$
SCHEMBL21146040
  Mrv1719007181908152D 0   0.00000     0.00000     0

 31 33  0  0  0  0              1 V2000 
    5.2113   -7.3995    0.0000 C   0  0  0  0  0  0  0  0  0  0  0  0
    5.2041   -6.5697    0.0000 C   0  0  0  0  0  0  0  0  0  0  0  0
    5.9015   -6.1625    0.0000 N   0  0  0  0  0  0  0  0  0  0  0  0
    5.9190   -7.8168    0.0000 C   0  0  0  0  0  0  0  0  0  0  0  0
    6.6279   -7.4075    0.0000 C   0  0  0  0  0  0  0  0  0  0  0  0
    6.6317   -6.5606    0.0000 C   0  0  0  0  0  0  0  0  0  0  0  0
    6.1123   -8.6717    0.0000 O   0  0  0  0  0  0  0  0  0  0  0  0
    5.1660   -4.9798    0.0000 C   0  0  0  0  0  0  0  0  0  0  0  0
    5.9150   -5.3750    0.0000 C   0  0  0  0  0  0  0  0  0  0  0  0
    4.7775   -5.6206    0.0000 F   0  0  0  0  0  0  0  0  0  0  0  0
    4.3760   -4.8979    0.0000 F   0  0  0  0  0  0  0  0  0  0  0  0
    4.5090   -3.6403    0.0000 C   0  0  0  0  0  0  0  0  0  0  0  0
    5.2109   -4.0557    0.0000 C   0  0  0  0  0  0  0  0  0  0  0  0
    4.5027   -2.8002    0.0000 C   0  0  0  0  0  0  0  0  0  0  0  0
    3.7955   -2.3754    0.0000 C   0  0  0  0  0  0  0  0  0  0  0  0
    3.0511   -3.0511    0.0000 N   0  0  0  0  0  0  0  0  0  0  0  0
    3.7738   -1.5658    0.0000 O   0  0  0  0  0  0  0  0  0  0  0  0
    5.2035   -2.4068    0.0000 C   0  0  0  0  0  0  0  0  0  0  0  0
    5.9078   -2.7884    0.0000 C   0  0  0  0  0  0  0  0  0  0  0  0
    5.9135   -3.6440    0.0000 C   0  0  0  0  0  0  0  0  0  0  0  0
    6.6041   -4.0548    0.0000 F   0  0  0  0  0  0  0  0  0  0  0  0
    6.6041   -4.8979    0.0000 O   0  0  0  0  0  0  0  0  0  0  0  0
    0.9513   -1.5465    0.0000 C   0  0  0  0  0  0  0  0  0  0  0  0
    0.9513   -2.3797    0.0000 C   0  0  0  0  0  0  0  0  0  0  0  0
    0.2208   -1.1441    0.0000 F   0  0  0  0  0  0  0  0  0  0  0  0
    1.6631   -1.1307    0.0000 C   0  0  0  0  0  0  0  0  0  0  0  0
    1.6460   -0.3011    0.0000 F   0  0  0  0  0  0  0  0  0  0  0  0
    2.3604   -1.5322    0.0000 C   0  0  0  0  0  0  0  0  0  0  0  0
    2.3534   -2.3913    0.0000 C   0  0  0  0  0  0  0  0  0  0  0  0
    1.6609   -2.7969    0.0000 C   0  0  0  0  0  0  0  0  0  0  0  0
    0.2137   -2.8273    0.0000 C   0  0  0  0  0  0  0  0  0  0  0  0
  1  2  1  0  0  0  0
  1  4  1  0  0  0  0
  2  3  1  0  0  0  0
  3  6  1  0  0  0  0
  3  9  1  0  0  0  0
  4  5  1  0  0  0  0
  6  5  1  0  0  0  0
  7  4  1  0  0  0  0
  8  9  1  0  0  0  0
  8 13  1  0  0  0  0
  9 22  2  0  0  0  0
 10  8  1  0  0  0  0
 11  8  1  0  0  0  0
 12 13  1  0  0  0  0
 13 20  2  0  0  0  0
 14 12  2  0  0  0  0
 14 18  1  0  0  0  0
 15 14  1  0  0  0  0
 15 16  1  0  0  0  0
 16 29  1  0  0  0  0
 17 15  2  0  0  0  0
 18 19  2  0  0  0  0
 20 21  1  0  0  0  0
 20 19  1  0  0  0  0
 23 24  1  0  0  0  0
 23 26  2  0  0  0  0
 24 30  2  0  0  0  0
 25 23  1  0  0  0  0
 26 27  1  0  0  0  0
 26 28  1  0  0  0  0
 29 28  2  0  0  0  0
 30 29  1  0  0  0  0
 31 24  1  0  0  0  0
M  END
> <ID>
SCHEMBL21146040

> <InChIKey>
YTJZYNYQIZMGKB-UHFFFAOYSA-N

> <MW>
442.386

> <Series_Name>
Series_18

$$$$
SCHEMBL21146041
  Mrv1719007181908152D 0   0.00000     0.00000     0

 29 31  0  0  0  0              1 V2000 
    5.5218   -6.4503    0.0000 C   0  0  0  0  0  0  0  0  0  0  0  0
    5.5183   -5.6162    0.0000 C   0  0  0  0  0  0  0  0  0  0  0  0
    6.1905   -5.2111    0.0000 N   0  0  0  0  0  0  0  0  0  0  0  0
    6.2217   -6.8583    0.0000 C   0  0  0  0  0  0  0  0  0  0  0  0
    6.9415   -5.6244    0.0000 C   0  0  0  0  0  0  0  0  0  0  0  0
    6.9366   -6.4514    0.0000 C   0  0  0  0  0  0  0  0  0  0  0  0
    6.4123   -7.6874    0.0000 O   0  0  0  0  0  0  0  0  0  0  0  0
    5.5142   -3.9865    0.0000 C   0  0  0  0  0  0  0  0  0  0  0  0
    6.2298   -4.4571    0.0000 C   0  0  0  0  0  0  0  0  0  0  0  0
    5.0818   -4.6937    0.0000 F   0  0  0  0  0  0  0  0  0  0  0  0
    4.6752   -3.9730    0.0000 F   0  0  0  0  0  0  0  0  0  0  0  0
    4.7911   -2.7473    0.0000 C   0  0  0  0  0  0  0  0  0  0  0  0
    5.5201   -3.1549    0.0000 C   0  0  0  0  0  0  0  0  0  0  0  0
    4.7954   -1.9243    0.0000 C   0  0  0  0  0  0  0  0  0  0  0  0
    4.0900   -1.5435    0.0000 C   0  0  0  0  0  0  0  0  0  0  0  0
    3.3632   -2.1621    0.0000 N   0  0  0  0  0  0  0  0  0  0  0  0
    4.0654   -0.7022    0.0000 O   0  0  0  0  0  0  0  0  0  0  0  0
    5.5181   -1.5199    0.0000 C   0  0  0  0  0  0  0  0  0  0  0  0
    6.2159   -1.9200    0.0000 C   0  0  0  0  0  0  0  0  0  0  0  0
    6.2211   -2.7450    0.0000 C   0  0  0  0  0  0  0  0  0  0  0  0
    7.0624   -3.1692    0.0000 Cl  0  0  0  0  0  0  0  0  0  0  0  0
    6.9112   -3.9730    0.0000 O   0  0  0  0  0  0  0  0  0  0  0  0
    1.2496   -1.5161    0.0000 C   0  0  0  0  0  0  0  0  0  0  0  0
    1.2498   -0.6957    0.0000 C   0  0  0  0  0  0  0  0  0  0  0  0
    0.4007   -0.3003    0.0000 Cl  0  0  0  0  0  0  0  0  0  0  0  0
    1.9580   -0.3049    0.0000 C   0  0  0  0  0  0  0  0  0  0  0  0
    2.6675   -0.6914    0.0000 C   0  0  0  0  0  0  0  0  0  0  0  0
    2.6620   -1.5190    0.0000 C   0  0  0  0  0  0  0  0  0  0  0  0
    1.9680   -1.9313    0.0000 C   0  0  0  0  0  0  0  0  0  0  0  0
  1  2  1  0  0  0  0
  1  4  1  0  0  0  0
  2  3  1  0  0  0  0
  3  9  1  0  0  0  0
  5  3  1  0  0  0  0
  5  6  1  0  0  0  0
  6  4  1  0  0  0  0
  7  4  1  0  0  0  0
  8  9  1  0  0  0  0
  8 10  1  0  0  0  0
  8 13  1  0  0  0  0
  9 22  2  0  0  0  0
 11  8  1  0  0  0  0
 12 13  1  0  0  0  0
 12 14  2  0  0  0  0
 13 20  2  0  0  0  0
 14 18  1  0  0  0  0
 15 14  1  0  0  0  0
 15 16  1  0  0  0  0
 16 28  1  0  0  0  0
 17 15  2  0  0  0  0
 18 19  2  0  0  0  0
 20 19  1  0  0  0  0
 20 21  1  0  0  0  0
 23 24  1  0  0  0  0
 23 29  2  0  0  0  0
 24 26  2  0  0  0  0
 25 24  1  0  0  0  0
 26 27  1  0  0  0  0
 28 27  2  0  0  0  0
 29 28  1  0  0  0  0
M  END
> <ID>
SCHEMBL21146041

> <InChIKey>
XSAMGLHNVJJTGB-UHFFFAOYSA-N

> <MW>
443.27

> <Series_Name>
Series_18

$$$$
SCHEMBL21146065
  Mrv1719007181908172D 0   0.00000     0.00000     0

 30 32  0  0  0  0              1 V2000 
    5.9384   -6.8310    0.0000 C   0  0  0  0  0  0  0  0  0  0  0  0
    5.2202   -6.4213    0.0000 C   0  0  0  0  0  0  0  0  0  0  0  0
    5.2191   -5.6054    0.0000 C   0  0  0  0  0  0  0  0  0  0  0  0
    5.9120   -5.1960    0.0000 N   0  0  0  0  0  0  0  0  0  0  0  0
    6.6499   -6.4254    0.0000 C   0  0  0  0  0  0  0  0  0  0  0  0
    6.6595   -5.6036    0.0000 C   0  0  0  0  0  0  0  0  0  0  0  0
    6.1324   -7.6563    0.0000 O   0  0  0  0  0  0  0  0  0  0  0  0
    5.2257   -3.9623    0.0000 C   0  0  0  0  0  0  0  0  0  0  0  0
    5.9580   -4.4563    0.0000 C   0  0  0  0  0  0  0  0  0  0  0  0
    4.7920   -4.6819    0.0000 F   0  0  0  0  0  0  0  0  0  0  0  0
    4.3881   -3.9659    0.0000 F   0  0  0  0  0  0  0  0  0  0  0  0
    4.5084   -2.7361    0.0000 C   0  0  0  0  0  0  0  0  0  0  0  0
    5.2266   -3.1446    0.0000 C   0  0  0  0  0  0  0  0  0  0  0  0
    3.7823   -3.1396    0.0000 F   0  0  0  0  0  0  0  0  0  0  0  0
    4.5073   -1.9144    0.0000 C   0  0  0  0  0  0  0  0  0  0  0  0
    3.7760   -1.5317    0.0000 C   0  0  0  0  0  0  0  0  0  0  0  0
    3.0661   -2.1481    0.0000 N   0  0  0  0  0  0  0  0  0  0  0  0
    3.7823   -0.6977    0.0000 O   0  0  0  0  0  0  0  0  0  0  0  0
    5.2286   -1.5120    0.0000 C   0  0  0  0  0  0  0  0  0  0  0  0
    5.9435   -1.9144    0.0000 C   0  0  0  0  0  0  0  0  0  0  0  0
    5.9372   -2.7415    0.0000 C   0  0  0  0  0  0  0  0  0  0  0  0
    6.6280   -3.9659    0.0000 O   0  0  0  0  0  0  0  0  0  0  0  0
    0.2431   -1.9166    0.0000 C   0  0  0  0  0  0  0  0  0  0  0  0
    0.9371   -1.5097    0.0000 C   0  0  0  0  0  0  0  0  0  0  0  0
    0.9472   -0.6851    0.0000 C   0  0  0  0  0  0  0  0  0  0  0  0
    0.2203   -0.2754    0.0000 F   0  0  0  0  0  0  0  0  0  0  0  0
    1.6671   -0.2771    0.0000 C   0  0  0  0  0  0  0  0  0  0  0  0
    2.3819   -0.6853    0.0000 C   0  0  0  0  0  0  0  0  0  0  0  0
    2.3804   -1.5064    0.0000 C   0  0  0  0  0  0  0  0  0  0  0  0
    1.6638   -1.9203    0.0000 C   0  0  0  0  0  0  0  0  0  0  0  0
  1  2  1  0  0  0  0
  1  5  1  0  0  0  0
  2  3  1  0  0  0  0
  3  4  1  0  0  0  0
  4  6  1  0  0  0  0
  4  9  1  0  0  0  0
  6  5  1  0  0  0  0
  7  1  1  0  0  0  0
  8  9  1  0  0  0  0
  8 10  1  0  0  0  0
  8 13  1  0  0  0  0
  9 22  2  0  0  0  0
 11  8  1  0  0  0  0
 12 13  1  0  0  0  0
 12 14  1  0  0  0  0
 13 21  2  0  0  0  0
 15 12  2  0  0  0  0
 15 16  1  0  0  0  0
 15 19  1  0  0  0  0
 16 18  2  0  0  0  0
 17 16  1  0  0  0  0
 17 29  1  0  0  0  0
 19 20  2  0  0  0  0
 21 20  1  0  0  0  0
 23 24  1  0  0  0  0
 24 30  2  0  0  0  0
 25 24  1  0  0  0  0
 25 27  2  0  0  0  0
 26 25  1  0  0  0  0
 28 27  1  0  0  0  0
 29 28  2  0  0  0  0
 30 29  1  0  0  0  0
M  END
> <ID>
SCHEMBL21146065

> <InChIKey>
WNHCSYQVMHGXNX-UHFFFAOYSA-N

> <MW>
424.396

> <Series_Name>
Series_18

$$$$
SCHEMBL21146067
  Mrv1719007181908172D 0   0.00000     0.00000     0

 30 32  0  0  0  0              1 V2000 
    5.9506   -6.8461    0.0000 C   0  0  0  0  0  0  0  0  0  0  0  0
    5.2324   -6.4334    0.0000 C   0  0  0  0  0  0  0  0  0  0  0  0
    5.9240   -5.2064    0.0000 N   0  0  0  0  0  0  0  0  0  0  0  0
    5.2455   -5.6243    0.0000 C   0  0  0  0  0  0  0  0  0  0  0  0
    6.6633   -6.4386    0.0000 C   0  0  0  0  0  0  0  0  0  0  0  0
    6.6633   -5.6145    0.0000 C   0  0  0  0  0  0  0  0  0  0  0  0
    6.1447   -7.6717    0.0000 O   0  0  0  0  0  0  0  0  0  0  0  0
    5.2356   -3.9717    0.0000 C   0  0  0  0  0  0  0  0  0  0  0  0
    5.9618   -4.4733    0.0000 C   0  0  0  0  0  0  0  0  0  0  0  0
    4.8017   -4.6913    0.0000 F   0  0  0  0  0  0  0  0  0  0  0  0
    4.3969   -3.9738    0.0000 F   0  0  0  0  0  0  0  0  0  0  0  0
    5.2362   -3.1511    0.0000 C   0  0  0  0  0  0  0  0  0  0  0  0
    4.5201   -2.7416    0.0000 C   0  0  0  0  0  0  0  0  0  0  0  0
    4.5286   -1.9092    0.0000 C   0  0  0  0  0  0  0  0  0  0  0  0
    3.7200   -1.5505    0.0000 C   0  0  0  0  0  0  0  0  0  0  0  0
    3.7899   -0.6991    0.0000 O   0  0  0  0  0  0  0  0  0  0  0  0
    5.2312   -1.5119    0.0000 C   0  0  0  0  0  0  0  0  0  0  0  0
    5.9483   -1.9111    0.0000 C   0  0  0  0  0  0  0  0  0  0  0  0
    6.6599   -1.5086    0.0000 F   0  0  0  0  0  0  0  0  0  0  0  0
    5.9492   -2.7395    0.0000 C   0  0  0  0  0  0  0  0  0  0  0  0
    6.6599   -3.9738    0.0000 O   0  0  0  0  0  0  0  0  0  0  0  0
    0.9511   -0.6872    0.0000 C   0  0  0  0  0  0  0  0  0  0  0  0
    0.9408   -1.5107    0.0000 C   0  0  0  0  0  0  0  0  0  0  0  0
    0.2208   -0.2759    0.0000 F   0  0  0  0  0  0  0  0  0  0  0  0
    1.6681   -0.2769    0.0000 C   0  0  0  0  0  0  0  0  0  0  0  0
    2.3864   -0.6863    0.0000 C   0  0  0  0  0  0  0  0  0  0  0  0
    2.3870   -1.5134    0.0000 C   0  0  0  0  0  0  0  0  0  0  0  0
    3.0724   -2.1525    0.0000 N   0  0  0  0  0  0  0  0  0  0  0  0
    0.2366   -1.9305    0.0000 C   0  0  0  0  0  0  0  0  0  0  0  0
    1.6667   -1.9147    0.0000 C   0  0  0  0  0  0  0  0  0  0  0  0
  1  2  1  0  0  0  0
  1  5  1  0  0  0  0
  3  4  1  0  0  0  0
  3  9  1  0  0  0  0
  4  2  1  0  0  0  0
  6  3  1  0  0  0  0
  6  5  1  0  0  0  0
  7  1  1  0  0  0  0
  8  9  1  0  0  0  0
  8 10  1  0  0  0  0
  8 12  1  0  0  0  0
  9 21  2  0  0  0  0
 11  8  1  0  0  0  0
 12 13  1  0  0  0  0
 12 20  2  0  0  0  0
 13 14  2  0  0  0  0
 14 15  1  0  0  0  0
 14 17  1  0  0  0  0
 15 16  2  0  0  0  0
 17 18  2  0  0  0  0
 18 19  1  0  0  0  0
 20 18  1  0  0  0  0
 22 23  1  0  0  0  0
 22 25  2  0  0  0  0
 23 30  2  0  0  0  0
 24 22  1  0  0  0  0
 25 26  1  0  0  0  0
 26 27  2  0  0  0  0
 27 28  1  0  0  0  0
 28 15  1  0  0  0  0
 29 23  1  0  0  0  0
 30 27  1  0  0  0  0
M  END
> <ID>
SCHEMBL21146067

> <InChIKey>
BBJQMBAAKZWAHI-UHFFFAOYSA-N

> <MW>
424.396

> <Series_Name>
Series_18

$$$$
SCHEMBL21146068
  Mrv1719007181908172D 0   0.00000     0.00000     0

 30 32  0  0  0  0              1 V2000 
    5.9407   -6.8094    0.0000 C   0  0  0  0  0  0  0  0  0  0  0  0
    5.2368   -6.4071    0.0000 C   0  0  0  0  0  0  0  0  0  0  0  0
    5.2378   -5.5821    0.0000 C   0  0  0  0  0  0  0  0  0  0  0  0
    5.9224   -5.1776    0.0000 N   0  0  0  0  0  0  0  0  0  0  0  0
    6.6525   -5.5805    0.0000 C   0  0  0  0  0  0  0  0  0  0  0  0
    6.6618   -6.4080    0.0000 C   0  0  0  0  0  0  0  0  0  0  0  0
    6.1495   -7.6301    0.0000 O   0  0  0  0  0  0  0  0  0  0  0  0
    5.2252   -3.9633    0.0000 C   0  0  0  0  0  0  0  0  0  0  0  0
    5.9603   -4.4418    0.0000 C   0  0  0  0  0  0  0  0  0  0  0  0
    4.7961   -4.6689    0.0000 F   0  0  0  0  0  0  0  0  0  0  0  0
    4.3964   -3.9604    0.0000 F   0  0  0  0  0  0  0  0  0  0  0  0
    4.5117   -2.7206    0.0000 C   0  0  0  0  0  0  0  0  0  0  0  0
    5.2267   -3.1297    0.0000 C   0  0  0  0  0  0  0  0  0  0  0  0
    4.5060   -1.9044    0.0000 C   0  0  0  0  0  0  0  0  0  0  0  0
    3.8406   -1.5223    0.0000 C   0  0  0  0  0  0  0  0  0  0  0  0
    3.0702   -2.1437    0.0000 N   0  0  0  0  0  0  0  0  0  0  0  0
    5.3535   -0.6949    0.0000 Cl  0  0  0  0  0  0  0  0  0  0  0  0
    5.2305   -1.5005    0.0000 C   0  0  0  0  0  0  0  0  0  0  0  0
    5.9474   -1.9014    0.0000 C   0  0  0  0  0  0  0  0  0  0  0  0
    5.9474   -2.7275    0.0000 C   0  0  0  0  0  0  0  0  0  0  0  0
    6.6309   -3.9604    0.0000 O   0  0  0  0  0  0  0  0  0  0  0  0
    0.2180   -0.2725    0.0000 F   0  0  0  0  0  0  0  0  0  0  0  0
    0.9567   -0.6813    0.0000 C   0  0  0  0  0  0  0  0  0  0  0  0
    1.6630   -0.2816    0.0000 C   0  0  0  0  0  0  0  0  0  0  0  0
    2.3674   -0.6692    0.0000 C   0  0  0  0  0  0  0  0  0  0  0  0
    2.3707   -1.4968    0.0000 C   0  0  0  0  0  0  0  0  0  0  0  0
    0.9573   -1.4955    0.0000 C   0  0  0  0  0  0  0  0  0  0  0  0
    1.6651   -1.8997    0.0000 C   0  0  0  0  0  0  0  0  0  0  0  0
    0.2227   -1.9075    0.0000 C   0  0  0  0  0  0  0  0  0  0  0  0
    3.7969   -0.6903    0.0000 O   0  0  0  0  0  0  0  0  0  0  0  0
  1  2  1  0  0  0  0
  2  3  1  0  0  0  0
  3  4  1  0  0  0  0
  4  9  1  0  0  0  0
  5  4  1  0  0  0  0
  5  6  1  0  0  0  0
  6  1  1  0  0  0  0
  7  1  1  0  0  0  0
  8  9  1  0  0  0  0
  8 10  1  0  0  0  0
  8 13  1  0  0  0  0
  9 21  2  0  0  0  0
 11  8  1  0  0  0  0
 12 13  1  0  0  0  0
 13 20  2  0  0  0  0
 14 12  2  0  0  0  0
 14 18  1  0  0  0  0
 15 14  1  0  0  0  0
 15 16  1  0  0  0  0
 17 18  1  0  0  0  0
 18 19  2  0  0  0  0
 20 19  1  0  0  0  0
 22 23  1  0  0  0  0
 23 24  2  0  0  0  0
 24 25  1  0  0  0  0
 25 26  2  0  0  0  0
 26 16  1  0  0  0  0
 26 28  1  0  0  0  0
 27 28  2  0  0  0  0
 27 23  1  0  0  0  0
 29 27  1  0  0  0  0
 30 15  2  0  0  0  0
M  END
> <ID>
SCHEMBL21146068

> <InChIKey>
YHOFTLCWUVDSCH-UHFFFAOYSA-N

> <MW>
440.85

> <Series_Name>
Series_18

$$$$
SCHEMBL21146070
  Mrv1719007181908172D 0   0.00000     0.00000     0

 31 33  0  0  0  0              1 V2000 
    5.9563   -6.8504    0.0000 C   0  0  0  0  0  0  0  0  0  0  0  0
    5.2398   -6.4451    0.0000 C   0  0  0  0  0  0  0  0  0  0  0  0
    5.2336   -5.6202    0.0000 C   0  0  0  0  0  0  0  0  0  0  0  0
    5.9278   -5.2099    0.0000 N   0  0  0  0  0  0  0  0  0  0  0  0
    6.6435   -6.4479    0.0000 C   0  0  0  0  0  0  0  0  0  0  0  0
    6.6487   -5.6157    0.0000 C   0  0  0  0  0  0  0  0  0  0  0  0
    6.1396   -7.6768    0.0000 O   0  0  0  0  0  0  0  0  0  0  0  0
    5.2359   -3.9747    0.0000 C   0  0  0  0  0  0  0  0  0  0  0  0
    4.8049   -4.6944    0.0000 F   0  0  0  0  0  0  0  0  0  0  0  0
    4.3998   -3.9765    0.0000 F   0  0  0  0  0  0  0  0  0  0  0  0
    4.5218   -2.7448    0.0000 C   0  0  0  0  0  0  0  0  0  0  0  0
    5.2387   -3.1531    0.0000 C   0  0  0  0  0  0  0  0  0  0  0  0
    4.5165   -1.9208    0.0000 C   0  0  0  0  0  0  0  0  0  0  0  0
    3.7860   -1.5346    0.0000 C   0  0  0  0  0  0  0  0  0  0  0  0
    3.0651   -2.1539    0.0000 N   0  0  0  0  0  0  0  0  0  0  0  0
    3.7739   -0.6995    0.0000 O   0  0  0  0  0  0  0  0  0  0  0  0
    5.2344   -1.5188    0.0000 C   0  0  0  0  0  0  0  0  0  0  0  0
    5.9598   -1.9199    0.0000 C   0  0  0  0  0  0  0  0  0  0  0  0
    5.9557   -2.7415    0.0000 C   0  0  0  0  0  0  0  0  0  0  0  0
    6.6458   -3.1480    0.0000 O   0  0  0  0  0  0  0  0  0  0  0  0
    5.8987   -4.3438    0.0000 C   0  0  0  0  0  0  0  0  0  0  0  0
    6.6458   -3.9765    0.0000 O   0  0  0  0  0  0  0  0  0  0  0  0
    0.9465   -0.6895    0.0000 C   0  0  0  0  0  0  0  0  0  0  0  0
    0.9301   -1.5233    0.0000 C   0  0  0  0  0  0  0  0  0  0  0  0
    0.2209   -0.2762    0.0000 F   0  0  0  0  0  0  0  0  0  0  0  0
    1.6713   -0.2795    0.0000 C   0  0  0  0  0  0  0  0  0  0  0  0
    2.3883   -0.6875    0.0000 C   0  0  0  0  0  0  0  0  0  0  0  0
    2.3860   -1.5083    0.0000 C   0  0  0  0  0  0  0  0  0  0  0  0
    0.2286   -1.9371    0.0000 C   0  0  0  0  0  0  0  0  0  0  0  0
    1.6651   -1.9171    0.0000 C   0  0  0  0  0  0  0  0  0  0  0  0
    7.3638   -2.7544    0.0000 C   0  0  0  0  0  0  0  0  0  0  0  0
  1  2  1  0  0  0  0
  1  5  1  0  0  0  0
  1  7  1  0  0  0  0
  2  3  1  0  0  0  0
  3  4  1  0  0  0  0
  4 21  1  0  0  0  0
  5  6  1  0  0  0  0
  6  4  1  0  0  0  0
  8  9  1  0  0  0  0
  8 12  1  0  0  0  0
  8 21  1  0  0  0  0
 10  8  1  0  0  0  0
 11 12  1  0  0  0  0
 12 19  2  0  0  0  0
 13 11  2  0  0  0  0
 13 17  1  0  0  0  0
 14 13  1  0  0  0  0
 14 15  1  0  0  0  0
 15 28  1  0  0  0  0
 16 14  2  0  0  0  0
 17 18  2  0  0  0  0
 19 18  1  0  0  0  0
 19 20  1  0  0  0  0
 20 31  1  0  0  0  0
 21 22  2  0  0  0  0
 23 24  1  0  0  0  0
 23 26  2  0  0  0  0
 24 30  2  0  0  0  0
 25 23  1  0  0  0  0
 26 27  1  0  0  0  0
 28 27  2  0  0  0  0
 29 24  1  0  0  0  0
 30 28  1  0  0  0  0
M  END
> <ID>
SCHEMBL21146070

> <InChIKey>
ABEBVGMZSYZLDT-UHFFFAOYSA-N

> <MW>
436.431

> <Series_Name>
Series_18

$$$$
SCHEMBL21146076
  Mrv1719007181908172D 0   0.00000     0.00000     0

 35 37  0  0  1  0              1 V2000 
    4.5024   -7.7385    0.0000 O   0  0  0  0  0  0  0  0  0  0  0  0
    5.2260   -8.2294    0.0000 C   0  0  0  0  0  0  0  0  0  0  0  0
    6.1104   -7.7385    0.0000 N   0  0  0  0  0  0  0  0  0  0  0  0
    5.1996   -5.6654    0.0000 C   0  0  0  0  0  0  0  0  0  0  0  0
    5.8692   -5.2462    0.0000 N   0  0  0  0  0  0  0  0  0  0  0  0
    5.2277   -6.4948    0.0000 C   0  0  0  0  0  0  0  0  0  0  0  0
    5.9270   -6.8980    0.0000 C   0  0  1  0  0  0  0  0  0  0  0  0
    6.6274   -6.4708    0.0000 C   0  0  0  0  0  0  0  0  0  0  0  0
    6.5984   -5.6355    0.0000 C   0  0  0  0  0  0  0  0  0  0  0  0
    7.3483   -6.0429    0.0000 C   0  0  0  0  0  0  0  0  0  0  0  0
    7.1452   -7.0003    0.0000 C   0  0  0  0  0  0  0  0  0  0  0  0
    5.2048   -4.0255    0.0000 C   0  0  0  0  0  0  0  0  0  0  0  0
    5.8893   -4.4811    0.0000 C   0  0  0  0  0  0  0  0  0  0  0  0
    4.7436   -4.7234    0.0000 F   0  0  0  0  0  0  0  0  0  0  0  0
    4.3416   -4.0200    0.0000 F   0  0  0  0  0  0  0  0  0  0  0  0
    5.1774   -3.1803    0.0000 C   0  0  0  0  0  0  0  0  0  0  0  0
    4.4748   -2.7752    0.0000 C   0  0  0  0  0  0  0  0  0  0  0  0
    4.4628   -1.9459    0.0000 C   0  0  0  0  0  0  0  0  0  0  0  0
    3.8219   -1.5619    0.0000 C   0  0  0  0  0  0  0  0  0  0  0  0
    3.0351   -2.1909    0.0000 N   0  0  0  0  0  0  0  0  0  0  0  0
    3.7386   -0.7236    0.0000 O   0  0  0  0  0  0  0  0  0  0  0  0
    5.1835   -1.5335    0.0000 C   0  0  0  0  0  0  0  0  0  0  0  0
    5.8705   -2.7728    0.0000 C   0  0  0  0  0  0  0  0  0  0  0  0
    6.5727   -3.1959    0.0000 F   0  0  0  0  0  0  0  0  0  0  0  0
    6.5526   -4.0200    0.0000 O   0  0  0  0  0  0  0  0  0  0  0  0
    5.8667   -1.9449    0.0000 C   0  0  0  0  0  0  0  0  0  0  0  0
    0.9385   -1.5377    0.0000 C   0  0  0  0  0  0  0  0  0  0  0  0
    0.9467   -0.7049    0.0000 C   0  0  0  0  0  0  0  0  0  0  0  0
    0.2210   -0.3015    0.0000 F   0  0  0  0  0  0  0  0  0  0  0  0
    1.6661   -0.3035    0.0000 C   0  0  0  0  0  0  0  0  0  0  0  0
    2.3651   -0.7085    0.0000 C   0  0  0  0  0  0  0  0  0  0  0  0
    2.3649   -1.5343    0.0000 C   0  0  0  0  0  0  0  0  0  0  0  0
    0.2111   -1.9495    0.0000 C   0  0  0  0  0  0  0  0  0  0  0  0
    1.6613   -1.9355    0.0000 C   0  0  0  0  0  0  0  0  0  0  0  0
    5.2646   -8.9847    0.0000 C   0  0  0  0  0  0  0  0  0  0  0  0
  1  2  2  0  0  0  0
  2  3  1  0  0  0  0
  2 35  1  0  0  0  0
  4  5  1  0  0  0  0
  4  6  1  0  0  0  0
  5  9  1  0  0  0  0
  5 13  1  0  0  0  0
  7  6  1  0  0  0  0
  7  3  1  1  0  0  0
  8  9  1  0  0  0  0
  8 10  1  0  0  0  0
  7  8  1  0  0  0  0
 11  8  1  0  0  0  0
 12 13  1  0  0  0  0
 12 14  1  0  0  0  0
 13 25  2  0  0  0  0
 15 12  1  0  0  0  0
 16 12  1  0  0  0  0
 17 16  2  0  0  0  0
 17 18  1  0  0  0  0
 18 22  2  0  0  0  0
 19 18  1  0  0  0  0
 19 20  1  0  0  0  0
 21 19  2  0  0  0  0
 22 26  1  0  0  0  0
 23 24  1  0  0  0  0
 23 16  1  0  0  0  0
 26 23  2  0  0  0  0
 27 28  2  0  0  0  0
 27 34  1  0  0  0  0
 28 29  1  0  0  0  0
 28 30  1  0  0  0  0
 30 31  2  0  0  0  0
 32 31  1  0  0  0  0
 32 20  1  0  0  0  0
 33 27  1  0  0  0  0
 34 32  2  0  0  0  0
M  END
> <ID>
SCHEMBL21146076

> <InChIKey>
ZOZFWTGUPPEGMQ-NRFANRHFSA-N

> <MW>
493.503

> <Series_Name>
Series_18

$$$$
SCHEMBL21146083
  Mrv1719007181908182D 0   0.00000     0.00000     0

 33 35  0  0  0  0              1 V2000 
    6.0588   -7.6167    0.0000 C   0  0  0  0  0  0  0  0  0  0  0  0
    5.4279   -8.3280    0.0000 O   0  0  0  0  0  0  0  0  0  0  0  0
    5.3664   -7.2101    0.0000 C   0  0  0  0  0  0  0  0  0  0  0  0
    5.3320   -6.3958    0.0000 C   0  0  0  0  0  0  0  0  0  0  0  0
    6.0157   -5.9765    0.0000 N   0  0  0  0  0  0  0  0  0  0  0  0
    6.7618   -7.1930    0.0000 C   0  0  0  0  0  0  0  0  0  0  0  0
    6.7633   -6.3689    0.0000 C   0  0  0  0  0  0  0  0  0  0  0  0
    6.4874   -8.3202    0.0000 C   0  0  0  0  0  0  0  0  0  0  0  0
    7.5049   -8.3280    0.0000 O   0  0  0  0  0  0  0  0  0  0  0  0
    5.2868   -4.7338    0.0000 C   0  0  0  0  0  0  0  0  0  0  0  0
    4.5853   -5.1731    0.0000 F   0  0  0  0  0  0  0  0  0  0  0  0
    4.5656   -4.3501    0.0000 F   0  0  0  0  0  0  0  0  0  0  0  0
    4.5849   -3.5305    0.0000 C   0  0  0  0  0  0  0  0  0  0  0  0
    5.3014   -3.9246    0.0000 C   0  0  0  0  0  0  0  0  0  0  0  0
    3.7471   -2.3416    0.0000 C   0  0  0  0  0  0  0  0  0  0  0  0
    4.5525   -2.7024    0.0000 C   0  0  0  0  0  0  0  0  0  0  0  0
    3.8014   -1.4892    0.0000 O   0  0  0  0  0  0  0  0  0  0  0  0
    5.2702   -2.2761    0.0000 C   0  0  0  0  0  0  0  0  0  0  0  0
    5.9897   -2.6705    0.0000 C   0  0  0  0  0  0  0  0  0  0  0  0
    6.0136   -3.4992    0.0000 C   0  0  0  0  0  0  0  0  0  0  0  0
    6.7211   -3.8994    0.0000 F   0  0  0  0  0  0  0  0  0  0  0  0
    5.9764   -5.0903    0.0000 C   0  0  0  0  0  0  0  0  0  0  0  0
    6.7211   -4.7224    0.0000 O   0  0  0  0  0  0  0  0  0  0  0  0
    0.9411   -1.5266    0.0000 C   0  0  0  0  0  0  0  0  0  0  0  0
    0.9734   -2.3518    0.0000 C   0  0  0  0  0  0  0  0  0  0  0  0
    0.2156   -1.1365    0.0000 F   0  0  0  0  0  0  0  0  0  0  0  0
    1.6460   -0.2939    0.0000 F   0  0  0  0  0  0  0  0  0  0  0  0
    1.6651   -1.1079    0.0000 C   0  0  0  0  0  0  0  0  0  0  0  0
    2.3769   -1.4923    0.0000 C   0  0  0  0  0  0  0  0  0  0  0  0
    2.4019   -2.3301    0.0000 C   0  0  0  0  0  0  0  0  0  0  0  0
    3.0960   -2.9687    0.0000 N   0  0  0  0  0  0  0  0  0  0  0  0
    1.7107   -2.7324    0.0000 C   0  0  0  0  0  0  0  0  0  0  0  0
    0.2547   -2.7832    0.0000 C   0  0  0  0  0  0  0  0  0  0  0  0
  1  2  1  0  0  0  0
  1  8  1  0  0  0  0
  3  4  1  0  0  0  0
  3  1  1  0  0  0  0
  4  5  1  0  0  0  0
  5 22  1  0  0  0  0
  6  7  1  0  0  0  0
  6  1  1  0  0  0  0
  7  5  1  0  0  0  0
  9  8  1  0  0  0  0
 10 11  1  0  0  0  0
 10 12  1  0  0  0  0
 10 22  1  0  0  0  0
 13 14  2  0  0  0  0
 13 16  1  0  0  0  0
 14 10  1  0  0  0  0
 15 16  1  0  0  0  0
 15 17  2  0  0  0  0
 16 18  2  0  0  0  0
 18 19  1  0  0  0  0
 19 20  2  0  0  0  0
 20 21  1  0  0  0  0
 20 14  1  0  0  0  0
 22 23  2  0  0  0  0
 24 25  2  0  0  0  0
 24 28  1  0  0  0  0
 25 32  1  0  0  0  0
 25 33  1  0  0  0  0
 26 24  1  0  0  0  0
 27 28  1  0  0  0  0
 28 29  2  0  0  0  0
 30 31  1  0  0  0  0
 30 29  1  0  0  0  0
 31 15  1  0  0  0  0
 32 30  2  0  0  0  0
M  END
> <ID>
SCHEMBL21146083

> <InChIKey>
PZAIPXWKSPXGFR-UHFFFAOYSA-N

> <MW>
472.412

> <Series_Name>
Series_18

$$$$
SCHEMBL21146088
  Mrv1719007181908182D 0   0.00000     0.00000     0

 33 36  0  0  1  0              1 V2000 
    5.4129   -6.5954    0.0000 C   0  0  2  0  0  0  0  0  0  0  0  0
    6.0877   -6.0877    0.0000 N   0  0  0  0  0  0  0  0  0  0  0  0
    5.8685   -7.0527    0.0000 C   0  0  0  0  0  0  0  0  0  0  0  0
    6.4744   -7.0292    0.0000 C   0  0  0  0  0  0  0  0  0  0  0  0
    6.8268   -6.5935    0.0000 C   0  0  0  0  0  0  0  0  0  0  0  0
    6.8403   -7.3140    0.0000 C   0  0  0  0  0  0  0  0  0  0  0  0
    5.4198   -7.3357    0.0000 C   0  0  0  0  0  0  0  0  0  0  0  0
    6.1269   -7.7283    0.0000 C   0  0  1  0  0  0  0  0  0  0  0  0
    5.3724   -4.8255    0.0000 C   0  0  0  0  0  0  0  0  0  0  0  0
    4.6435   -5.2656    0.0000 F   0  0  0  0  0  0  0  0  0  0  0  0
    4.6213   -4.4213    0.0000 F   0  0  0  0  0  0  0  0  0  0  0  0
    4.6286   -3.5939    0.0000 C   0  0  0  0  0  0  0  0  0  0  0  0
    5.3705   -3.9923    0.0000 C   0  0  0  0  0  0  0  0  0  0  0  0
    4.6001   -2.7519    0.0000 C   0  0  0  0  0  0  0  0  0  0  0  0
    3.9510   -2.3717    0.0000 C   0  0  0  0  0  0  0  0  0  0  0  0
    3.1549   -3.0216    0.0000 N   0  0  0  0  0  0  0  0  0  0  0  0
    3.8437   -1.5108    0.0000 O   0  0  0  0  0  0  0  0  0  0  0  0
    5.3310   -2.3222    0.0000 C   0  0  0  0  0  0  0  0  0  0  0  0
    6.0287   -2.7193    0.0000 C   0  0  0  0  0  0  0  0  0  0  0  0
    6.0835   -3.5667    0.0000 C   0  0  0  0  0  0  0  0  0  0  0  0
    6.7764   -3.9770    0.0000 F   0  0  0  0  0  0  0  0  0  0  0  0
    6.0116   -5.1753    0.0000 C   0  0  0  0  0  0  0  0  0  0  0  0
    6.7987   -4.8213    0.0000 O   0  0  0  0  0  0  0  0  0  0  0  0
    1.0191   -2.3977    0.0000 C   0  0  0  0  0  0  0  0  0  0  0  0
    0.3110   -2.8119    0.0000 C   0  0  0  0  0  0  0  0  0  0  0  0
    0.2444   -1.1553    0.0000 F   0  0  0  0  0  0  0  0  0  0  0  0
    0.9918   -1.5609    0.0000 C   0  0  0  0  0  0  0  0  0  0  0  0
    1.6885   -0.3110    0.0000 F   0  0  0  0  0  0  0  0  0  0  0  0
    1.6976   -1.1362    0.0000 C   0  0  0  0  0  0  0  0  0  0  0  0
    2.4287   -1.5287    0.0000 C   0  0  0  0  0  0  0  0  0  0  0  0
    2.4523   -2.3756    0.0000 C   0  0  0  0  0  0  0  0  0  0  0  0
    1.7355   -2.7975    0.0000 C   0  0  0  0  0  0  0  0  0  0  0  0
    6.1322   -8.5761    0.0000 O   0  0  0  0  0  0  0  0  0  0  0  0
  1  2  1  6  0  0  0
  1  3  1  0  0  0  0
  1  7  1  0  0  0  0
  2 22  1  0  0  0  0
  3  4  1  0  0  0  0
  5  4  1  0  0  0  0
  5  2  1  0  0  0  0
  6  5  1  0  0  0  0
  8  6  1  0  0  0  0
  8  7  1  0  0  0  0
  8 33  1  6  0  0  0
  9 10  1  0  0  0  0
  9 22  1  0  0  0  0
 11  9  1  0  0  0  0
 12 13  2  0  0  0  0
 12 14  1  0  0  0  0
 13  9  1  0  0  0  0
 14 18  2  0  0  0  0
 15 14  1  0  0  0  0
 15 16  1  0  0  0  0
 17 15  2  0  0  0  0
 18 19  1  0  0  0  0
 19 20  2  0  0  0  0
 20 21  1  0  0  0  0
 20 13  1  0  0  0  0
 22 23  2  0  0  0  0
 24 25  1  0  0  0  0
 24 32  1  0  0  0  0
 26 27  1  0  0  0  0
 27 24  2  0  0  0  0
 28 29  1  0  0  0  0
 29 30  2  0  0  0  0
 29 27  1  0  0  0  0
 31 16  1  0  0  0  0
 31 30  1  0  0  0  0
 32 31  2  0  0  0  0
M  END
> <ID>
SCHEMBL21146088

> <InChIKey>
HWDWBAYKIDXPDA-YTPLPTRZSA-N

> <MW>
468.424

> <Series_Name>
Series_18

$$$$
SCHEMBL21146092
  Mrv1719007181908182D 0   0.00000     0.00000     0

 31 33  0  0  1  0              1 V2000 
    5.9586   -6.8532    0.0000 C   0  0  1  0  0  0  0  0  0  0  0  0
    5.2192   -6.4195    0.0000 C   0  0  1  0  0  0  0  0  0  0  0  0
    5.9132   -5.2014    0.0000 N   0  0  0  0  0  0  0  0  0  0  0  0
    5.2198   -5.6176    0.0000 C   0  0  0  0  0  0  0  0  0  0  0  0
    6.6330   -6.4408    0.0000 C   0  0  0  0  0  0  0  0  0  0  0  0
    6.6492   -5.6024    0.0000 C   0  0  0  0  0  0  0  0  0  0  0  0
    6.1231   -7.6744    0.0000 O   0  0  0  0  0  0  0  0  0  0  0  0
    5.2063   -3.9759    0.0000 C   0  0  0  0  0  0  0  0  0  0  0  0
    4.7999   -4.6904    0.0000 F   0  0  0  0  0  0  0  0  0  0  0  0
    4.3801   -3.9786    0.0000 F   0  0  0  0  0  0  0  0  0  0  0  0
    5.2044   -3.1395    0.0000 C   0  0  0  0  0  0  0  0  0  0  0  0
    4.5112   -2.7301    0.0000 C   0  0  0  0  0  0  0  0  0  0  0  0
    3.7256   -1.5337    0.0000 C   0  0  0  0  0  0  0  0  0  0  0  0
    4.5033   -1.9170    0.0000 C   0  0  0  0  0  0  0  0  0  0  0  0
    3.0661   -2.1536    0.0000 N   0  0  0  0  0  0  0  0  0  0  0  0
    3.7779   -0.6935    0.0000 O   0  0  0  0  0  0  0  0  0  0  0  0
    5.2159   -1.5244    0.0000 C   0  0  0  0  0  0  0  0  0  0  0  0
    5.9383   -1.9127    0.0000 C   0  0  0  0  0  0  0  0  0  0  0  0
    5.9447   -2.7377    0.0000 C   0  0  0  0  0  0  0  0  0  0  0  0
    6.7743   -3.1619    0.0000 Cl  0  0  0  0  0  0  0  0  0  0  0  0
    5.9060   -4.3461    0.0000 C   0  0  0  0  0  0  0  0  0  0  0  0
    6.6432   -3.9786    0.0000 O   0  0  0  0  0  0  0  0  0  0  0  0
    0.9402   -0.6839    0.0000 C   0  0  0  0  0  0  0  0  0  0  0  0
    0.9458   -1.5114    0.0000 C   0  0  0  0  0  0  0  0  0  0  0  0
    0.2190   -0.2920    0.0000 F   0  0  0  0  0  0  0  0  0  0  0  0
    1.6624   -0.2758    0.0000 C   0  0  0  0  0  0  0  0  0  0  0  0
    2.3611   -0.6732    0.0000 C   0  0  0  0  0  0  0  0  0  0  0  0
    2.3682   -1.5151    0.0000 C   0  0  0  0  0  0  0  0  0  0  0  0
    1.6600   -1.9151    0.0000 C   0  0  0  0  0  0  0  0  0  0  0  0
    0.2099   -1.9161    0.0000 C   0  0  0  0  0  0  0  0  0  0  0  0
    4.2706   -6.8439    0.0000 O   0  0  0  0  0  0  0  0  0  0  0  0
  1  2  1  0  0  0  0
  1  7  1  1  0  0  0
  2 31  1  6  0  0  0
  3  4  1  0  0  0  0
  3  6  1  0  0  0  0
  3 21  1  0  0  0  0
  2  4  1  0  0  0  0
  5  6  1  0  0  0  0
  1  5  1  0  0  0  0
  8  9  1  0  0  0  0
  8 11  1  0  0  0  0
  8 21  1  0  0  0  0
 10  8  1  0  0  0  0
 11 19  2  0  0  0  0
 12 11  1  0  0  0  0
 13 14  1  0  0  0  0
 13 16  2  0  0  0  0
 14 12  2  0  0  0  0
 15 13  1  0  0  0  0
 17 18  2  0  0  0  0
 17 14  1  0  0  0  0
 19 18  1  0  0  0  0
 19 20  1  0  0  0  0
 21 22  2  0  0  0  0
 23 24  1  0  0  0  0
 23 26  2  0  0  0  0
 24 29  2  0  0  0  0
 25 23  1  0  0  0  0
 26 27  1  0  0  0  0
 27 28  2  0  0  0  0
 28 15  1  0  0  0  0
 29 28  1  0  0  0  0
 30 24  1  0  0  0  0
M  END
> <ID>
SCHEMBL21146092

> <InChIKey>
LHSRQFMTEGSVOC-QZTJIDSGSA-N

> <MW>
456.85

> <Series_Name>
Series_18

$$$$
SCHEMBL21146106
  Mrv1719007181908202D 0   0.00000     0.00000     0

 31 33  0  0  0  0              1 V2000 
    5.1417   -6.4730    0.0000 C   0  0  0  0  0  0  0  0  0  0  0  0
    5.1315   -5.6564    0.0000 C   0  0  0  0  0  0  0  0  0  0  0  0
    5.8252   -5.2497    0.0000 N   0  0  0  0  0  0  0  0  0  0  0  0
    5.8482   -6.9061    0.0000 C   0  0  0  0  0  0  0  0  0  0  0  0
    6.5435   -6.4836    0.0000 C   0  0  0  0  0  0  0  0  0  0  0  0
    6.5468   -5.6471    0.0000 C   0  0  0  0  0  0  0  0  0  0  0  0
    6.4443   -7.5344    0.0000 N   0  0  0  0  0  0  0  0  0  0  0  0
    5.2595   -7.4907    0.0000 C   0  0  0  0  0  0  0  0  0  0  0  0
    5.1339   -4.0189    0.0000 C   0  0  0  0  0  0  0  0  0  0  0  0
    5.8393   -4.4039    0.0000 C   0  0  0  0  0  0  0  0  0  0  0  0
    4.7264   -4.7264    0.0000 F   0  0  0  0  0  0  0  0  0  0  0  0
    4.3253   -4.0113    0.0000 F   0  0  0  0  0  0  0  0  0  0  0  0
    5.1285   -3.1705    0.0000 C   0  0  0  0  0  0  0  0  0  0  0  0
    4.4369   -2.7580    0.0000 C   0  0  0  0  0  0  0  0  0  0  0  0
    4.4302   -1.9325    0.0000 C   0  0  0  0  0  0  0  0  0  0  0  0
    3.6496   -1.5625    0.0000 C   0  0  0  0  0  0  0  0  0  0  0  0
    3.7148   -0.6976    0.0000 O   0  0  0  0  0  0  0  0  0  0  0  0
    5.1323   -1.5258    0.0000 C   0  0  0  0  0  0  0  0  0  0  0  0
    5.8307   -1.9199    0.0000 C   0  0  0  0  0  0  0  0  0  0  0  0
    5.8417   -2.7641    0.0000 C   0  0  0  0  0  0  0  0  0  0  0  0
    6.5403   -3.1742    0.0000 F   0  0  0  0  0  0  0  0  0  0  0  0
    0.2093   -0.2791    0.0000 F   0  0  0  0  0  0  0  0  0  0  0  0
    0.9080   -0.6968    0.0000 C   0  0  0  0  0  0  0  0  0  0  0  0
    1.6262   -0.2856    0.0000 C   0  0  0  0  0  0  0  0  0  0  0  0
    2.3207   -0.6954    0.0000 C   0  0  0  0  0  0  0  0  0  0  0  0
    3.0172   -2.1801    0.0000 N   0  0  0  0  0  0  0  0  0  0  0  0
    2.3186   -1.5217    0.0000 C   0  0  0  0  0  0  0  0  0  0  0  0
    0.2244   -1.9356    0.0000 C   0  0  0  0  0  0  0  0  0  0  0  0
    0.9405   -1.4304    0.0000 C   0  0  0  0  0  0  0  0  0  0  0  0
    1.6459   -1.8582    0.0000 C   0  0  0  0  0  0  0  0  0  0  0  0
    6.5403   -4.0113    0.0000 O   0  0  0  0  0  0  0  0  0  0  0  0
  1  2  1  0  0  0  0
  1  4  1  0  0  0  0
  2  3  1  0  0  0  0
  3  6  1  0  0  0  0
  3 10  1  0  0  0  0
  4  5  1  0  0  0  0
  6  5  1  0  0  0  0
  7  4  1  0  0  0  0
  8  4  1  0  0  0  0
  9 10  1  0  0  0  0
  9 11  1  0  0  0  0
  9 13  1  0  0  0  0
 10 31  2  0  0  0  0
 12  9  1  0  0  0  0
 13 20  2  0  0  0  0
 14 13  1  0  0  0  0
 15 14  2  0  0  0  0
 15 16  1  0  0  0  0
 15 18  1  0  0  0  0
 16 17  2  0  0  0  0
 18 19  2  0  0  0  0
 20 21  1  0  0  0  0
 20 19  1  0  0  0  0
 22 23  1  0  0  0  0
 23 24  2  0  0  0  0
 23 29  1  0  0  0  0
 24 25  1  0  0  0  0
 26 27  1  0  0  0  0
 26 16  1  0  0  0  0
 27 25  2  0  0  0  0
 28 29  1  0  0  0  0
 29 30  2  0  0  0  0
 30 27  1  0  0  0  0
M  END
> <ID>
SCHEMBL21146106

> <InChIKey>
HSNUQCMBSHQVMF-UHFFFAOYSA-N

> <MW>
437.439

> <Series_Name>
Series_18

$$$$
SCHEMBL21146107
  Mrv1719007181908202D 0   0.00000     0.00000     0

 31 33  0  0  0  0              1 V2000 
    0.1410   -0.2114    0.0000 F   0  0  0  0  0  0  0  0  0  0  0  0
    3.6738   -0.6255    0.0000 O   0  0  0  0  0  0  0  0  0  0  0  0
    0.1410   -1.8502    0.0000 C   0  0  0  0  0  0  0  0  0  0  0  0
    6.5283   -3.1364    0.0000 F   0  0  0  0  0  0  0  0  0  0  0  0
    4.7047   -4.7047    0.0000 F   0  0  0  0  0  0  0  0  0  0  0  0
    4.2905   -3.9734    0.0000 F   0  0  0  0  0  0  0  0  0  0  0  0
    6.0614   -7.3124    0.0000 C   0  0  0  0  0  0  0  0  0  0  0  0
    5.2332   -7.4534    0.0000 C   0  0  0  0  0  0  0  0  0  0  0  0
    2.2554   -1.4332    0.0000 C   0  0  0  0  0  0  0  0  0  0  0  0
    2.2554   -0.6167    0.0000 C   0  0  0  0  0  0  0  0  0  0  0  0
    1.5682   -0.1938    0.0000 C   0  0  0  0  0  0  0  0  0  0  0  0
    0.8281   -0.6109    0.0000 C   0  0  0  0  0  0  0  0  0  0  0  0
    0.8281   -1.4507    0.0000 C   0  0  0  0  0  0  0  0  0  0  0  0
    3.7179   -1.4449    0.0000 C   0  0  0  0  0  0  0  0  0  0  0  0
    1.5682   -1.8502    0.0000 C   0  0  0  0  0  0  0  0  0  0  0  0
    4.3875   -1.8619    0.0000 C   0  0  0  0  0  0  0  0  0  0  0  0
    5.7971   -2.6841    0.0000 C   0  0  0  0  0  0  0  0  0  0  0  0
    5.7971   -1.8502    0.0000 C   0  0  0  0  0  0  0  0  0  0  0  0
    5.1275   -1.4449    0.0000 C   0  0  0  0  0  0  0  0  0  0  0  0
    4.3875   -2.6783    0.0000 C   0  0  0  0  0  0  0  0  0  0  0  0
    5.0923   -3.1129    0.0000 C   0  0  0  0  0  0  0  0  0  0  0  0
    5.0879   -3.9558    0.0000 C   0  0  0  0  0  0  0  0  0  0  0  0
    5.0923   -5.6209    0.0000 C   0  0  0  0  0  0  0  0  0  0  0  0
    5.0923   -6.4315    0.0000 C   0  0  0  0  0  0  0  0  0  0  0  0
    5.8059   -6.8675    0.0000 C   0  0  0  0  0  0  0  0  0  0  0  0
    6.5195   -5.6209    0.0000 C   0  0  0  0  0  0  0  0  0  0  0  0
    6.5195   -6.4491    0.0000 C   0  0  0  0  0  0  0  0  0  0  0  0
    5.8001   -4.3743    0.0000 C   0  0  0  0  0  0  0  0  0  0  0  0
    6.5195   -3.9734    0.0000 O   0  0  0  0  0  0  0  0  0  0  0  0
    5.8059   -5.2244    0.0000 N   0  0  0  0  0  0  0  0  0  0  0  0
    2.9690   -1.8854    0.0000 N   0  0  0  0  0  0  0  0  0  0  0  0
  9 10  2  0  0  0  0
 10 11  1  0  0  0  0
 11 12  2  0  0  0  0
  1 12  1  0  0  0  0
 12 13  1  0  0  0  0
  3 13  1  0  0  0  0
  2 14  2  0  0  0  0
  9 15  1  0  0  0  0
 13 15  2  0  0  0  0
 14 16  1  0  0  0  0
  4 17  1  0  0  0  0
 17 18  1  0  0  0  0
 18 19  2  0  0  0  0
 16 19  1  0  0  0  0
 16 20  2  0  0  0  0
 20 21  1  0  0  0  0
 17 21  2  0  0  0  0
 21 22  1  0  0  0  0
  5 22  1  0  0  0  0
  6 22  1  0  0  0  0
 23 24  1  0  0  0  0
 24 25  1  0  0  0  0
  7 25  1  0  0  0  0
  8 25  1  0  0  0  0
 26 27  1  0  0  0  0
 25 27  1  0  0  0  0
 22 28  1  0  0  0  0
 28 29  2  0  0  0  0
 23 30  1  0  0  0  0
 26 30  1  0  0  0  0
 28 30  1  0  0  0  0
  9 31  1  0  0  0  0
 14 31  1  0  0  0  0
M  END
> <ID>
SCHEMBL21146107

> <InChIKey>
VWEIVZKCXIGYKR-UHFFFAOYSA-N

> <MW>
436.451

> <Series_Name>
Series_18

$$$$
SCHEMBL21146112
  Mrv1719007181908202D 0   0.00000     0.00000     0

 30 32  0  0  0  0              1 V2000 
   21.2824  -14.4283    0.0000 C   0  0  0  0  0  0  0  0  0  0  0  0
   20.5720  -13.9955    0.0000 C   0  0  0  0  0  0  0  0  0  0  0  0
   20.5796  -13.1778    0.0000 C   0  0  0  0  0  0  0  0  0  0  0  0
   21.2855  -12.7864    0.0000 N   0  0  0  0  0  0  0  0  0  0  0  0
   21.9961  -14.0293    0.0000 C   0  0  0  0  0  0  0  0  0  0  0  0
   21.9973  -13.1881    0.0000 C   0  0  0  0  0  0  0  0  0  0  0  0
   21.4555  -15.2606    0.0000 O   0  0  0  0  0  0  0  0  0  0  0  0
   20.5958  -11.5363    0.0000 C   0  0  0  0  0  0  0  0  0  0  0  0
   20.1711  -12.2387    0.0000 F   0  0  0  0  0  0  0  0  0  0  0  0
   19.7557  -11.5399    0.0000 F   0  0  0  0  0  0  0  0  0  0  0  0
   19.9033  -10.3001    0.0000 C   0  0  0  0  0  0  0  0  0  0  0  0
   20.6194  -10.7097    0.0000 C   0  0  0  0  0  0  0  0  0  0  0  0
   19.9189   -9.4723    0.0000 C   0  0  0  0  0  0  0  0  0  0  0  0
   19.1229   -9.0920    0.0000 C   0  0  0  0  0  0  0  0  0  0  0  0
   19.2080   -8.2347    0.0000 O   0  0  0  0  0  0  0  0  0  0  0  0
   20.6429   -9.0787    0.0000 C   0  0  0  0  0  0  0  0  0  0  0  0
   21.3323   -9.4884    0.0000 C   0  0  0  0  0  0  0  0  0  0  0  0
   21.3146  -10.3233    0.0000 C   0  0  0  0  0  0  0  0  0  0  0  0
   22.0221  -10.7278    0.0000 F   0  0  0  0  0  0  0  0  0  0  0  0
   21.2836  -11.9023    0.0000 C   0  0  0  0  0  0  0  0  0  0  0  0
   22.0032  -11.5587    0.0000 O   0  0  0  0  0  0  0  0  0  0  0  0
   15.5043   -9.4616    0.0000 Br  0  0  0  0  0  0  0  0  0  0  0  0
   16.3673   -9.0124    0.0000 C   0  0  0  0  0  0  0  0  0  0  0  0
   15.6572   -7.7814    0.0000 F   0  0  0  0  0  0  0  0  0  0  0  0
   16.3916   -8.1860    0.0000 C   0  0  0  0  0  0  0  0  0  0  0  0
   17.0921   -7.8147    0.0000 C   0  0  0  0  0  0  0  0  0  0  0  0
   17.7987   -8.1949    0.0000 C   0  0  0  0  0  0  0  0  0  0  0  0
   17.7514   -9.0454    0.0000 C   0  0  0  0  0  0  0  0  0  0  0  0
   18.4714   -9.6984    0.0000 N   0  0  0  0  0  0  0  0  0  0  0  0
   17.0895   -9.4315    0.0000 C   0  0  0  0  0  0  0  0  0  0  0  0
  1  2  1  0  0  0  0
  1  5  1  0  0  0  0
  1  7  1  0  0  0  0
  2  3  1  0  0  0  0
  3  4  1  0  0  0  0
  4  6  1  0  0  0  0
  4 20  1  0  0  0  0
  6  5  1  0  0  0  0
  8  9  1  0  0  0  0
  8 12  1  0  0  0  0
  8 20  1  0  0  0  0
 10  8  1  0  0  0  0
 11 12  1  0  0  0  0
 11 13  2  0  0  0  0
 12 18  2  0  0  0  0
 13 14  1  0  0  0  0
 13 16  1  0  0  0  0
 14 15  2  0  0  0  0
 16 17  2  0  0  0  0
 18 19  1  0  0  0  0
 18 17  1  0  0  0  0
 20 21  2  0  0  0  0
 22 23  1  0  0  0  0
 23 30  2  0  0  0  0
 24 25  1  0  0  0  0
 25 26  2  0  0  0  0
 25 23  1  0  0  0  0
 27 26  1  0  0  0  0
 28 27  2  0  0  0  0
 29 28  1  0  0  0  0
 29 14  1  0  0  0  0
 30 28  1  0  0  0  0
M  END
> <ID>
SCHEMBL21146112

> <InChIKey>
BSCDQRVRFRYJGF-UHFFFAOYSA-N

> <MW>
489.265

> <Series_Name>
Series_18

$$$$
SCHEMBL21146117
  Mrv1719007181908202D 0   0.00000     0.00000     0

 30 32  0  0  0  0              1 V2000 
    6.1291  -14.4674    0.0000 C   0  0  0  0  0  0  0  0  0  0  0  0
    5.4370  -14.0150    0.0000 C   0  0  0  0  0  0  0  0  0  0  0  0
    5.4633  -13.2048    0.0000 C   0  0  0  0  0  0  0  0  0  0  0  0
    6.1394  -12.8161    0.0000 N   0  0  0  0  0  0  0  0  0  0  0  0
    6.8606  -14.0571    0.0000 C   0  0  0  0  0  0  0  0  0  0  0  0
    6.8469  -13.2337    0.0000 C   0  0  0  0  0  0  0  0  0  0  0  0
    6.3313  -15.2910    0.0000 O   0  0  0  0  0  0  0  0  0  0  0  0
    5.4618  -11.5640    0.0000 C   0  0  0  0  0  0  0  0  0  0  0  0
    6.1697  -11.9877    0.0000 C   0  0  0  0  0  0  0  0  0  0  0  0
    5.0458  -12.2788    0.0000 F   0  0  0  0  0  0  0  0  0  0  0  0
    4.6429  -11.5690    0.0000 F   0  0  0  0  0  0  0  0  0  0  0  0
    5.5393  -10.7184    0.0000 C   0  0  0  0  0  0  0  0  0  0  0  0
    4.7691  -10.3245    0.0000 C   0  0  0  0  0  0  0  0  0  0  0  0
    4.8048   -9.4945    0.0000 C   0  0  0  0  0  0  0  0  0  0  0  0
    4.0449   -9.1081    0.0000 C   0  0  0  0  0  0  0  0  0  0  0  0
    5.4926   -9.1018    0.0000 C   0  0  0  0  0  0  0  0  0  0  0  0
    6.2047   -9.5176    0.0000 C   0  0  0  0  0  0  0  0  0  0  0  0
    6.1848  -10.3501    0.0000 C   0  0  0  0  0  0  0  0  0  0  0  0
    6.8877  -10.7632    0.0000 F   0  0  0  0  0  0  0  0  0  0  0  0
    6.8685  -11.5881    0.0000 O   0  0  0  0  0  0  0  0  0  0  0  0
    0.4159   -9.4633    0.0000 Cl  0  0  0  0  0  0  0  0  0  0  0  0
    1.2540   -9.0575    0.0000 C   0  0  0  0  0  0  0  0  0  0  0  0
    1.2762   -8.2349    0.0000 C   0  0  0  0  0  0  0  0  0  0  0  0
    0.5756   -7.8086    0.0000 F   0  0  0  0  0  0  0  0  0  0  0  0
    1.9967   -7.8167    0.0000 C   0  0  0  0  0  0  0  0  0  0  0  0
    2.6924   -8.2583    0.0000 C   0  0  0  0  0  0  0  0  0  0  0  0
    3.3479   -9.7272    0.0000 N   0  0  0  0  0  0  0  0  0  0  0  0
    2.6571   -9.0750    0.0000 C   0  0  0  0  0  0  0  0  0  0  0  0
    1.9711   -9.4682    0.0000 C   0  0  0  0  0  0  0  0  0  0  0  0
    4.0866   -8.2690    0.0000 O   0  0  0  0  0  0  0  0  0  0  0  0
  1  2  1  0  0  0  0
  3  4  1  0  0  0  0
  3  2  1  0  0  0  0
  4  9  1  0  0  0  0
  5  6  1  0  0  0  0
  5  1  1  0  0  0  0
  6  4  1  0  0  0  0
  7  1  1  0  0  0  0
  8  9  1  0  0  0  0
  8 10  1  0  0  0  0
  8 12  1  0  0  0  0
  9 20  2  0  0  0  0
 11  8  1  0  0  0  0
 12 13  1  0  0  0  0
 12 18  2  0  0  0  0
 13 14  2  0  0  0  0
 14 15  1  0  0  0  0
 14 16  1  0  0  0  0
 15 30  2  0  0  0  0
 16 17  2  0  0  0  0
 18 19  1  0  0  0  0
 18 17  1  0  0  0  0
 21 22  1  0  0  0  0
 22 29  2  0  0  0  0
 23 22  1  0  0  0  0
 23 25  2  0  0  0  0
 24 23  1  0  0  0  0
 26 25  1  0  0  0  0
 27 28  1  0  0  0  0
 27 15  1  0  0  0  0
 28 26  2  0  0  0  0
 29 28  1  0  0  0  0
M  END
> <ID>
SCHEMBL21146117

> <InChIKey>
NYJBGRRSILSPFO-UHFFFAOYSA-N

> <MW>
444.81

> <Series_Name>
Series_18

$$$$
SCHEMBL21146118
  Mrv1719007181908202D 0   0.00000     0.00000     0

 31 33  0  0  0  0              1 V2000 
   12.9077  -14.0357    0.0000 C   0  0  0  0  0  0  0  0  0  0  0  0
   12.8966  -13.2220    0.0000 C   0  0  0  0  0  0  0  0  0  0  0  0
   13.6159  -12.8160    0.0000 N   0  0  0  0  0  0  0  0  0  0  0  0
   13.6106  -14.4414    0.0000 C   0  0  0  0  0  0  0  0  0  0  0  0
   14.3443  -14.0575    0.0000 C   0  0  0  0  0  0  0  0  0  0  0  0
   14.3531  -13.2390    0.0000 C   0  0  0  0  0  0  0  0  0  0  0  0
   13.7968  -15.2821    0.0000 O   0  0  0  0  0  0  0  0  0  0  0  0
   12.9189  -11.5926    0.0000 C   0  0  0  0  0  0  0  0  0  0  0  0
   12.4733  -12.2638    0.0000 F   0  0  0  0  0  0  0  0  0  0  0  0
   12.0734  -11.5592    0.0000 F   0  0  0  0  0  0  0  0  0  0  0  0
   12.9377  -10.7611    0.0000 C   0  0  0  0  0  0  0  0  0  0  0  0
   12.2095  -10.3146    0.0000 C   0  0  0  0  0  0  0  0  0  0  0  0
   12.2393   -9.5133    0.0000 C   0  0  0  0  0  0  0  0  0  0  0  0
   11.4354   -9.1502    0.0000 C   0  0  0  0  0  0  0  0  0  0  0  0
   11.5211   -8.2838    0.0000 O   0  0  0  0  0  0  0  0  0  0  0  0
   12.9738   -9.1270    0.0000 C   0  0  0  0  0  0  0  0  0  0  0  0
   13.6911   -9.5309    0.0000 C   0  0  0  0  0  0  0  0  0  0  0  0
   13.6642  -10.3540    0.0000 C   0  0  0  0  0  0  0  0  0  0  0  0
   14.3776  -10.7784    0.0000 F   0  0  0  0  0  0  0  0  0  0  0  0
   13.5780  -11.9418    0.0000 C   0  0  0  0  0  0  0  0  0  0  0  0
   14.3395  -11.5973    0.0000 O   0  0  0  0  0  0  0  0  0  0  0  0
    7.9220   -9.4644    0.0000 F   0  0  0  0  0  0  0  0  0  0  0  0
    8.6435   -9.0696    0.0000 C   0  0  0  0  0  0  0  0  0  0  0  0
    7.9410   -7.8267    0.0000 F   0  0  0  0  0  0  0  0  0  0  0  0
    8.6781   -8.2453    0.0000 C   0  0  0  0  0  0  0  0  0  0  0  0
    9.3861   -7.8536    0.0000 C   0  0  0  0  0  0  0  0  0  0  0  0
    9.3883   -7.0269    0.0000 F   0  0  0  0  0  0  0  0  0  0  0  0
   10.1059   -8.2638    0.0000 C   0  0  0  0  0  0  0  0  0  0  0  0
   10.0634   -9.0958    0.0000 C   0  0  0  0  0  0  0  0  0  0  0  0
   10.7784   -9.7406    0.0000 N   0  0  0  0  0  0  0  0  0  0  0  0
    9.3597   -9.4745    0.0000 C   0  0  0  0  0  0  0  0  0  0  0  0
  1  2  1  0  0  0  0
  1  4  1  0  0  0  0
  2  3  1  0  0  0  0
  3  6  1  0  0  0  0
  3 20  1  0  0  0  0
  4  5  1  0  0  0  0
  6  5  1  0  0  0  0
  7  4  1  0  0  0  0
  8  9  1  0  0  0  0
  8 11  1  0  0  0  0
  8 20  1  0  0  0  0
 10  8  1  0  0  0  0
 11 18  2  0  0  0  0
 12 11  1  0  0  0  0
 12 13  2  0  0  0  0
 13 14  1  0  0  0  0
 13 16  1  0  0  0  0
 14 15  2  0  0  0  0
 16 17  2  0  0  0  0
 18 17  1  0  0  0  0
 18 19  1  0  0  0  0
 20 21  2  0  0  0  0
 22 23  1  0  0  0  0
 23 31  2  0  0  0  0
 23 25  1  0  0  0  0
 24 25  1  0  0  0  0
 25 26  2  0  0  0  0
 26 27  1  0  0  0  0
 26 28  1  0  0  0  0
 29 28  2  0  0  0  0
 30 29  1  0  0  0  0
 30 14  1  0  0  0  0
 31 29  1  0  0  0  0
M  END
> <ID>
SCHEMBL21146118

> <InChIKey>
TYKWKSLVMMEJHT-UHFFFAOYSA-N

> <MW>
446.349

> <Series_Name>
Series_18

$$$$
SCHEMBL21146203
  Mrv1719007181908432D 0   0.00000     0.00000     0

 36 38  0  0  0  0              1 V2000 
    6.6774   -8.0440    0.0000 O   0  0  0  0  0  0  0  0  0  0  0  0
    7.4317   -7.6328    0.0000 C   0  0  0  0  0  0  0  0  0  0  0  0
    7.3962   -6.8071    0.0000 C   0  0  0  0  0  0  0  0  0  0  0  0
    8.0912   -7.2423    0.0000 C   0  0  0  0  0  0  0  0  0  0  0  0
    8.1313   -8.0436    0.0000 C   0  0  0  0  0  0  0  0  0  0  0  0
    5.2415   -8.0440    0.0000 O   0  0  0  0  0  0  0  0  0  0  0  0
    5.9541   -7.5725    0.0000 C   0  0  0  0  0  0  0  0  0  0  0  0
    5.9620   -6.8149    0.0000 C   0  0  0  0  0  0  0  0  0  0  0  0
    5.2476   -6.4023    0.0000 C   0  0  0  0  0  0  0  0  0  0  0  0
    5.2522   -5.5828    0.0000 C   0  0  0  0  0  0  0  0  0  0  0  0
    5.9508   -5.1724    0.0000 N   0  0  0  0  0  0  0  0  0  0  0  0
    6.6810   -5.5862    0.0000 C   0  0  0  0  0  0  0  0  0  0  0  0
    6.6886   -6.3996    0.0000 C   0  0  0  0  0  0  0  0  0  0  0  0
    5.2551   -3.9609    0.0000 C   0  0  0  0  0  0  0  0  0  0  0  0
    5.9408   -4.3731    0.0000 C   0  0  0  0  0  0  0  0  0  0  0  0
    4.8264   -4.6534    0.0000 F   0  0  0  0  0  0  0  0  0  0  0  0
    4.4112   -3.9441    0.0000 F   0  0  0  0  0  0  0  0  0  0  0  0
    4.5258   -2.7202    0.0000 C   0  0  0  0  0  0  0  0  0  0  0  0
    5.2518   -3.1325    0.0000 C   0  0  0  0  0  0  0  0  0  0  0  0
    4.5195   -1.8995    0.0000 C   0  0  0  0  0  0  0  0  0  0  0  0
    3.7399   -1.5285    0.0000 C   0  0  0  0  0  0  0  0  0  0  0  0
    3.8058   -0.6919    0.0000 O   0  0  0  0  0  0  0  0  0  0  0  0
    5.2630   -1.4971    0.0000 C   0  0  0  0  0  0  0  0  0  0  0  0
    5.9626   -2.7245    0.0000 C   0  0  0  0  0  0  0  0  0  0  0  0
    6.6774   -3.1311    0.0000 F   0  0  0  0  0  0  0  0  0  0  0  0
    6.6774   -3.9614    0.0000 O   0  0  0  0  0  0  0  0  0  0  0  0
    5.9487   -1.8989    0.0000 C   0  0  0  0  0  0  0  0  0  0  0  0
    0.9381   -0.6727    0.0000 C   0  0  0  0  0  0  0  0  0  0  0  0
    0.9455   -1.4981    0.0000 C   0  0  0  0  0  0  0  0  0  0  0  0
    0.2249   -0.2768    0.0000 F   0  0  0  0  0  0  0  0  0  0  0  0
    1.6702   -0.2646    0.0000 C   0  0  0  0  0  0  0  0  0  0  0  0
    2.3802   -1.4964    0.0000 C   0  0  0  0  0  0  0  0  0  0  0  0
    3.0792   -2.1451    0.0000 N   0  0  0  0  0  0  0  0  0  0  0  0
    1.6761   -1.9009    0.0000 C   0  0  0  0  0  0  0  0  0  0  0  0
    0.2422   -1.9033    0.0000 C   0  0  0  0  0  0  0  0  0  0  0  0
    2.3686   -0.6706    0.0000 C   0  0  0  0  0  0  0  0  0  0  0  0
  1  2  1  0  0  0  0
  2  3  1  0  0  0  0
  2  5  1  0  0  0  0
  4  2  1  0  0  0  0
  6  7  2  0  0  0  0
  7  8  1  0  0  0  0
  7  1  1  0  0  0  0
  8  9  1  0  0  0  0
  9 10  1  0  0  0  0
 10 11  1  0  0  0  0
 11 15  1  0  0  0  0
 12 11  1  0  0  0  0
 12 13  1  0  0  0  0
 13  8  1  0  0  0  0
 14 15  1  0  0  0  0
 14 16  1  0  0  0  0
 14 19  1  0  0  0  0
 15 26  2  0  0  0  0
 17 14  1  0  0  0  0
 18 19  1  0  0  0  0
 19 24  2  0  0  0  0
 20 18  2  0  0  0  0
 20 21  1  0  0  0  0
 20 23  1  0  0  0  0
 21 22  2  0  0  0  0
 23 27  2  0  0  0  0
 24 25  1  0  0  0  0
 27 24  1  0  0  0  0
 28 29  1  0  0  0  0
 28 31  2  0  0  0  0
 29 34  2  0  0  0  0
 30 28  1  0  0  0  0
 31 36  1  0  0  0  0
 32 33  1  0  0  0  0
 32 34  1  0  0  0  0
 33 21  1  0  0  0  0
 35 29  1  0  0  0  0
 36 32  2  0  0  0  0
M  END
> <ID>
SCHEMBL21146203

> <InChIKey>
JJBATLJMVGFBAI-UHFFFAOYSA-N

> <MW>
508.514

> <Series_Name>
Series_18

$$$$
SCHEMBL21146205
  Mrv1719007181908432D 0   0.00000     0.00000     0

 34 37  0  0  1  0              1 V2000 
    5.2799   -5.7825    0.0000 C   0  0  2  0  0  0  0  0  0  0  0  0
    5.9434   -5.2462    0.0000 N   0  0  0  0  0  0  0  0  0  0  0  0
    6.6499   -5.6567    0.0000 C   0  0  1  0  0  0  0  0  0  0  0  0
    6.3138   -6.2451    0.0000 C   0  0  1  0  0  0  0  0  0  0  0  0
    6.6667   -6.4819    0.0000 C   0  0  0  0  0  0  0  0  0  0  0  0
    6.2395   -6.6143    0.0000 C   0  0  0  0  0  0  0  0  0  0  0  0
    6.2097   -5.8263    0.0000 C   0  0  0  0  0  0  0  0  0  0  0  0
    5.6038   -6.3760    0.0000 C   0  0  0  0  0  0  0  0  0  0  0  0
    5.9501   -6.8817    0.0000 C   0  0  1  0  0  0  0  0  0  0  0  0
    5.2413   -4.0079    0.0000 C   0  0  0  0  0  0  0  0  0  0  0  0
    5.9550   -4.4749    0.0000 C   0  0  0  0  0  0  0  0  0  0  0  0
    4.8104   -4.7233    0.0000 F   0  0  0  0  0  0  0  0  0  0  0  0
    4.3921   -3.9912    0.0000 F   0  0  0  0  0  0  0  0  0  0  0  0
    4.5251   -2.7592    0.0000 C   0  0  0  0  0  0  0  0  0  0  0  0
    5.2382   -3.1689    0.0000 C   0  0  0  0  0  0  0  0  0  0  0  0
    4.5217   -1.9207    0.0000 C   0  0  0  0  0  0  0  0  0  0  0  0
    3.7833   -1.5402    0.0000 C   0  0  0  0  0  0  0  0  0  0  0  0
    3.0675   -2.1700    0.0000 N   0  0  0  0  0  0  0  0  0  0  0  0
    3.7996   -0.6972    0.0000 O   0  0  0  0  0  0  0  0  0  0  0  0
    5.2408   -1.5164    0.0000 C   0  0  0  0  0  0  0  0  0  0  0  0
    5.9551   -1.9222    0.0000 C   0  0  0  0  0  0  0  0  0  0  0  0
    5.9544   -2.7524    0.0000 C   0  0  0  0  0  0  0  0  0  0  0  0
    6.6579   -3.1721    0.0000 F   0  0  0  0  0  0  0  0  0  0  0  0
    6.6579   -4.0088    0.0000 O   0  0  0  0  0  0  0  0  0  0  0  0
    0.2092   -0.2788    0.0000 F   0  0  0  0  0  0  0  0  0  0  0  0
    0.9494   -0.6813    0.0000 C   0  0  0  0  0  0  0  0  0  0  0  0
    1.6647   -0.2913    0.0000 C   0  0  0  0  0  0  0  0  0  0  0  0
    2.3737   -0.6833    0.0000 C   0  0  0  0  0  0  0  0  0  0  0  0
    2.3821   -1.5118    0.0000 C   0  0  0  0  0  0  0  0  0  0  0  0
    0.9482   -1.5152    0.0000 C   0  0  0  0  0  0  0  0  0  0  0  0
    1.6581   -1.9240    0.0000 C   0  0  0  0  0  0  0  0  0  0  0  0
    0.2266   -1.9344    0.0000 C   0  0  0  0  0  0  0  0  0  0  0  0
    5.2407   -6.4875    0.0000 C   0  0  0  0  0  0  0  0  0  0  0  0
    5.9434   -7.7386    0.0000 N   0  0  0  0  0  0  0  0  0  0  0  0
  1  2  1  6  0  0  0
  1  8  1  0  0  0  0
  1 33  1  0  0  0  0
  2 11  1  0  0  0  0
  3  4  1  0  0  0  0
  3  2  1  6  0  0  0
  3  5  1  0  0  0  0
  4  6  1  1  0  0  0
  4  7  1  0  0  0  0
  7  8  1  0  0  0  0
  9  5  1  0  0  0  0
  9 33  1  0  0  0  0
  9 34  1  6  0  0  0
 10 11  1  0  0  0  0
 10 12  1  0  0  0  0
 10 15  1  0  0  0  0
 11 24  2  0  0  0  0
 13 10  1  0  0  0  0
 14 15  1  0  0  0  0
 15 22  2  0  0  0  0
 16 14  2  0  0  0  0
 16 17  1  0  0  0  0
 16 20  1  0  0  0  0
 17 19  2  0  0  0  0
 18 17  1  0  0  0  0
 20 21  2  0  0  0  0
 22 21  1  0  0  0  0
 22 23  1  0  0  0  0
 25 26  1  0  0  0  0
 26 27  2  0  0  0  0
 26 30  1  0  0  0  0
 27 28  1  0  0  0  0
 28 29  2  0  0  0  0
 29 18  1  0  0  0  0
 30 31  2  0  0  0  0
 31 29  1  0  0  0  0
 32 30  1  0  0  0  0
M  END
> <ID>
SCHEMBL21146205

> <InChIKey>
FAUZOCLTUYMFOQ-RONDGGJASA-N

> <MW>
477.504

> <Series_Name>
Series_18

$$$$
SCHEMBL21146209
  Mrv1719007181908432D 0   0.00000     0.00000     0

 38 41  0  0  1  0              1 V2000 
    6.6332   -8.1627    0.0000 S   0  0  0  0  0  0  0  0  0  0  0  0
    6.6504   -9.0047    0.0000 O   0  0  0  0  0  0  0  0  0  0  0  0
    7.4020   -8.5981    0.0000 C   0  0  0  0  0  0  0  0  0  0  0  0
    7.3550   -7.7502    0.0000 O   0  0  0  0  0  0  0  0  0  0  0  0
    5.2337   -6.4952    0.0000 C   0  0  0  0  0  0  0  0  0  0  0  0
    5.2714   -5.7059    0.0000 C   0  0  2  0  0  0  0  0  0  0  0  0
    5.9287   -5.2585    0.0000 N   0  0  0  0  0  0  0  0  0  0  0  0
    5.6197   -6.4003    0.0000 C   0  0  0  0  0  0  0  0  0  0  0  0
    6.6494   -5.6841    0.0000 C   0  0  1  0  0  0  0  0  0  0  0  0
    6.2677   -6.2544    0.0000 C   0  0  1  0  0  0  0  0  0  0  0  0
    6.6590   -6.4938    0.0000 C   0  0  0  0  0  0  0  0  0  0  0  0
    5.9336   -6.9319    0.0000 C   0  0  1  0  0  0  0  0  0  0  0  0
    5.7224   -7.7502    0.0000 N   0  0  0  0  0  0  0  0  0  0  0  0
    6.2505   -6.5999    0.0000 C   0  0  0  0  0  0  0  0  0  0  0  0
    6.2148   -5.8327    0.0000 C   0  0  0  0  0  0  0  0  0  0  0  0
    5.2140   -4.0277    0.0000 C   0  0  0  0  0  0  0  0  0  0  0  0
    5.9426   -4.4517    0.0000 C   0  0  0  0  0  0  0  0  0  0  0  0
    4.7945   -4.7257    0.0000 F   0  0  0  0  0  0  0  0  0  0  0  0
    4.3820   -4.0040    0.0000 F   0  0  0  0  0  0  0  0  0  0  0  0
    5.2137   -3.1746    0.0000 C   0  0  0  0  0  0  0  0  0  0  0  0
    4.5079   -2.7618    0.0000 C   0  0  0  0  0  0  0  0  0  0  0  0
    4.5097   -1.9305    0.0000 C   0  0  0  0  0  0  0  0  0  0  0  0
    3.8505   -1.5405    0.0000 C   0  0  0  0  0  0  0  0  0  0  0  0
    3.0588   -2.1824    0.0000 N   0  0  0  0  0  0  0  0  0  0  0  0
    3.7806   -0.6874    0.0000 O   0  0  0  0  0  0  0  0  0  0  0  0
    5.2277   -1.5176    0.0000 C   0  0  0  0  0  0  0  0  0  0  0  0
    5.9351   -1.9234    0.0000 C   0  0  0  0  0  0  0  0  0  0  0  0
    5.9404   -2.7615    0.0000 C   0  0  0  0  0  0  0  0  0  0  0  0
    6.6504   -3.1791    0.0000 F   0  0  0  0  0  0  0  0  0  0  0  0
    6.6504   -4.0212    0.0000 O   0  0  0  0  0  0  0  0  0  0  0  0
    0.9282   -0.6841    0.0000 C   0  0  0  0  0  0  0  0  0  0  0  0
    0.9312   -1.5179    0.0000 C   0  0  0  0  0  0  0  0  0  0  0  0
    0.2062   -0.2749    0.0000 F   0  0  0  0  0  0  0  0  0  0  0  0
    1.6456   -0.2858    0.0000 C   0  0  0  0  0  0  0  0  0  0  0  0
    2.3547   -1.5161    0.0000 C   0  0  0  0  0  0  0  0  0  0  0  0
    1.6603   -1.9137    0.0000 C   0  0  0  0  0  0  0  0  0  0  0  0
    0.2152   -1.9443    0.0000 C   0  0  0  0  0  0  0  0  0  0  0  0
    2.3521   -0.6831    0.0000 C   0  0  0  0  0  0  0  0  0  0  0  0
  1  2  2  0  0  0  0
  1  4  2  0  0  0  0
  3  1  1  0  0  0  0
 12  5  1  0  0  0  0
  6  5  1  0  0  0  0
  6  7  1  6  0  0  0
  6  8  1  0  0  0  0
  7 17  1  0  0  0  0
  9 10  1  0  0  0  0
  9  7  1  6  0  0  0
  9 11  1  0  0  0  0
 10 14  1  1  0  0  0
 10 15  1  0  0  0  0
 12 13  1  1  0  0  0
 12 11  1  0  0  0  0
 13  1  1  0  0  0  0
 15  8  1  0  0  0  0
 16 17  1  0  0  0  0
 16 18  1  0  0  0  0
 16 20  1  0  0  0  0
 17 30  2  0  0  0  0
 19 16  1  0  0  0  0
 20 28  2  0  0  0  0
 21 20  1  0  0  0  0
 21 22  2  0  0  0  0
 22 26  1  0  0  0  0
 23 22  1  0  0  0  0
 23 24  1  0  0  0  0
 25 23  2  0  0  0  0
 26 27  2  0  0  0  0
 28 27  1  0  0  0  0
 28 29  1  0  0  0  0
 31 32  1  0  0  0  0
 31 34  2  0  0  0  0
 32 36  2  0  0  0  0
 33 31  1  0  0  0  0
 34 38  1  0  0  0  0
 35 24  1  0  0  0  0
 35 36  1  0  0  0  0
 37 32  1  0  0  0  0
 38 35  2  0  0  0  0
M  END
> <ID>
SCHEMBL21146209

> <InChIKey>
IALDTSQJLAOILG-GFBHRSBTSA-N

> <MW>
555.59

> <Series_Name>
Series_18

$$$$
SCHEMBL21146210
  Mrv1719007181908432D 0   0.00000     0.00000     0

 33 36  0  0  1  0              1 V2000 
    5.2597   -5.7865    0.0000 C   0  0  1  0  0  0  0  0  0  0  0  0
    5.9428   -5.2882    0.0000 N   0  0  0  0  0  0  0  0  0  0  0  0
    6.6580   -5.6945    0.0000 C   0  0  1  0  0  0  0  0  0  0  0  0
    6.2814   -6.2834    0.0000 C   0  0  1  0  0  0  0  0  0  0  0  0
    6.6695   -6.5281    0.0000 C   0  0  0  0  0  0  0  0  0  0  0  0
    5.9615   -6.9320    0.0000 C   0  0  0  0  0  0  0  0  0  0  0  0
    5.2484   -6.5318    0.0000 C   0  0  0  0  0  0  0  0  0  0  0  0
    6.2541   -6.6044    0.0000 C   0  0  0  0  0  0  0  0  0  0  0  0
    6.2295   -5.8465    0.0000 C   0  0  0  0  0  0  0  0  0  0  0  0
    5.6260   -6.3980    0.0000 C   0  0  0  0  0  0  0  0  0  0  0  0
    5.2264   -4.0312    0.0000 C   0  0  0  0  0  0  0  0  0  0  0  0
    5.9614   -4.5004    0.0000 C   0  0  0  0  0  0  0  0  0  0  0  0
    4.8059   -4.7542    0.0000 F   0  0  0  0  0  0  0  0  0  0  0  0
    4.3925   -4.0308    0.0000 F   0  0  0  0  0  0  0  0  0  0  0  0
    4.5200   -2.7730    0.0000 C   0  0  0  0  0  0  0  0  0  0  0  0
    5.2290   -3.1857    0.0000 C   0  0  0  0  0  0  0  0  0  0  0  0
    4.5132   -1.9443    0.0000 C   0  0  0  0  0  0  0  0  0  0  0  0
    3.9016   -1.5757    0.0000 C   0  0  0  0  0  0  0  0  0  0  0  0
    3.0662   -2.1877    0.0000 N   0  0  0  0  0  0  0  0  0  0  0  0
    3.7896   -0.7063    0.0000 O   0  0  0  0  0  0  0  0  0  0  0  0
    5.2448   -1.5363    0.0000 C   0  0  0  0  0  0  0  0  0  0  0  0
    5.9437   -1.9442    0.0000 C   0  0  0  0  0  0  0  0  0  0  0  0
    5.9471   -2.7796    0.0000 C   0  0  0  0  0  0  0  0  0  0  0  0
    6.6663   -3.2040    0.0000 F   0  0  0  0  0  0  0  0  0  0  0  0
    6.6663   -4.0308    0.0000 O   0  0  0  0  0  0  0  0  0  0  0  0
    0.9388   -0.6927    0.0000 C   0  0  0  0  0  0  0  0  0  0  0  0
    0.9377   -1.5291    0.0000 C   0  0  0  0  0  0  0  0  0  0  0  0
    0.2067   -0.2929    0.0000 F   0  0  0  0  0  0  0  0  0  0  0  0
    1.6812   -0.3005    0.0000 C   0  0  0  0  0  0  0  0  0  0  0  0
    2.3653   -0.6896    0.0000 C   0  0  0  0  0  0  0  0  0  0  0  0
    2.3698   -1.5320    0.0000 C   0  0  0  0  0  0  0  0  0  0  0  0
    1.6584   -1.9369    0.0000 C   0  0  0  0  0  0  0  0  0  0  0  0
    0.1981   -1.9463    0.0000 C   0  0  0  0  0  0  0  0  0  0  0  0
  1  2  1  6  0  0  0
  1 10  1  0  0  0  0
  1  7  1  0  0  0  0
  2 12  1  0  0  0  0
  3  4  1  0  0  0  0
  3  2  1  6  0  0  0
  3  5  1  0  0  0  0
  4  8  1  1  0  0  0
  4  9  1  0  0  0  0
  6  7  1  0  0  0  0
  6  5  1  0  0  0  0
  9 10  1  0  0  0  0
 11 12  1  0  0  0  0
 11 16  1  0  0  0  0
 12 25  2  0  0  0  0
 13 11  1  0  0  0  0
 14 11  1  0  0  0  0
 15 16  1  0  0  0  0
 16 23  2  0  0  0  0
 17 15  2  0  0  0  0
 17 21  1  0  0  0  0
 18 17  1  0  0  0  0
 18 19  1  0  0  0  0
 20 18  2  0  0  0  0
 21 22  2  0  0  0  0
 23 24  1  0  0  0  0
 23 22  1  0  0  0  0
 26 27  1  0  0  0  0
 26 29  2  0  0  0  0
 27 32  2  0  0  0  0
 28 26  1  0  0  0  0
 29 30  1  0  0  0  0
 30 31  2  0  0  0  0
 31 19  1  0  0  0  0
 32 31  1  0  0  0  0
 33 27  1  0  0  0  0
M  END
> <ID>
SCHEMBL21146210

> <InChIKey>
HECTXQUJFUYINJ-VELBRHGASA-N

> <MW>
462.489

> <Series_Name>
Series_18

$$$$
SCHEMBL21146253
  Mrv1719007181908462D 0   0.00000     0.00000     0

 30 32  0  0  0  0              1 V2000 
    5.9085   -6.8570    0.0000 C   0  0  0  0  0  0  0  0  0  0  0  0
    5.2077   -6.4495    0.0000 C   0  0  0  0  0  0  0  0  0  0  0  0
    5.2200   -5.6327    0.0000 C   0  0  0  0  0  0  0  0  0  0  0  0
    5.9256   -5.2263    0.0000 N   0  0  0  0  0  0  0  0  0  0  0  0
    6.6317   -6.4600    0.0000 C   0  0  0  0  0  0  0  0  0  0  0  0
    6.6479   -5.6239    0.0000 C   0  0  0  0  0  0  0  0  0  0  0  0
    6.1188   -7.6922    0.0000 O   0  0  0  0  0  0  0  0  0  0  0  0
    5.2080   -3.9989    0.0000 C   0  0  0  0  0  0  0  0  0  0  0  0
    5.9451   -4.4942    0.0000 C   0  0  0  0  0  0  0  0  0  0  0  0
    4.8030   -4.7110    0.0000 F   0  0  0  0  0  0  0  0  0  0  0  0
    4.3798   -3.9933    0.0000 F   0  0  0  0  0  0  0  0  0  0  0  0
    5.2193   -3.1684    0.0000 C   0  0  0  0  0  0  0  0  0  0  0  0
    3.7392   -1.5677    0.0000 C   0  0  0  0  0  0  0  0  0  0  0  0
    4.5258   -1.9479    0.0000 C   0  0  0  0  0  0  0  0  0  0  0  0
    3.0548   -2.1807    0.0000 N   0  0  0  0  0  0  0  0  0  0  0  0
    3.7909   -0.7177    0.0000 O   0  0  0  0  0  0  0  0  0  0  0  0
    5.2341   -1.5516    0.0000 C   0  0  0  0  0  0  0  0  0  0  0  0
    5.9319   -1.9398    0.0000 C   0  0  0  0  0  0  0  0  0  0  0  0
    5.9371   -2.7690    0.0000 C   0  0  0  0  0  0  0  0  0  0  0  0
    6.6708   -3.1875    0.0000 C   0  0  0  0  0  0  0  0  0  0  0  0
    6.6433   -3.9933    0.0000 O   0  0  0  0  0  0  0  0  0  0  0  0
    4.5293   -2.7647    0.0000 C   0  0  0  0  0  0  0  0  0  0  0  0
    0.2024   -1.9323    0.0000 F   0  0  0  0  0  0  0  0  0  0  0  0
    0.9352   -1.5336    0.0000 C   0  0  0  0  0  0  0  0  0  0  0  0
    0.9245   -0.6970    0.0000 C   0  0  0  0  0  0  0  0  0  0  0  0
    0.2024   -0.2944    0.0000 F   0  0  0  0  0  0  0  0  0  0  0  0
    1.6575   -0.3079    0.0000 C   0  0  0  0  0  0  0  0  0  0  0  0
    2.3693   -0.7177    0.0000 C   0  0  0  0  0  0  0  0  0  0  0  0
    2.3724   -1.5450    0.0000 C   0  0  0  0  0  0  0  0  0  0  0  0
    1.6550   -1.9286    0.0000 C   0  0  0  0  0  0  0  0  0  0  0  0
  1  2  1  0  0  0  0
  1  5  1  0  0  0  0
  2  3  1  0  0  0  0
  3  4  1  0  0  0  0
  4  6  1  0  0  0  0
  4  9  1  0  0  0  0
  6  5  1  0  0  0  0
  7  1  1  0  0  0  0
  8  9  1  0  0  0  0
  8 12  1  0  0  0  0
  9 21  2  0  0  0  0
 10  8  1  0  0  0  0
 11  8  1  0  0  0  0
 12 19  2  0  0  0  0
 13 14  1  0  0  0  0
 13 16  2  0  0  0  0
 14 22  2  0  0  0  0
 15 13  1  0  0  0  0
 17 14  1  0  0  0  0
 17 18  2  0  0  0  0
 19 20  1  0  0  0  0
 19 18  1  0  0  0  0
 22 12  1  0  0  0  0
 23 24  1  0  0  0  0
 24 30  2  0  0  0  0
 25 24  1  0  0  0  0
 25 27  2  0  0  0  0
 26 25  1  0  0  0  0
 27 28  1  0  0  0  0
 28 29  2  0  0  0  0
 29 15  1  0  0  0  0
 30 29  1  0  0  0  0
M  END
> <ID>
SCHEMBL21146253

> <InChIKey>
NUQIFBTVJJOMNO-UHFFFAOYSA-N

> <MW>
424.396

> <Series_Name>
Series_18

$$$$
SCHEMBL21146267
  Mrv1719007181908472D 0   0.00000     0.00000     0

 32 34  0  0  0  0              1 V2000 
    5.9897   -7.7172    0.0000 C   0  0  0  0  0  0  0  0  0  0  0  0
    5.9422   -6.8351    0.0000 C   0  0  0  0  0  0  0  0  0  0  0  0
    5.2371   -6.4269    0.0000 C   0  0  0  0  0  0  0  0  0  0  0  0
    5.2369   -5.6058    0.0000 C   0  0  0  0  0  0  0  0  0  0  0  0
    5.9334   -5.1941    0.0000 N   0  0  0  0  0  0  0  0  0  0  0  0
    6.6578   -5.5992    0.0000 C   0  0  0  0  0  0  0  0  0  0  0  0
    6.6613   -6.4365    0.0000 C   0  0  0  0  0  0  0  0  0  0  0  0
    6.8577   -8.0684    0.0000 N   0  0  0  0  0  0  0  0  0  0  0  0
    5.2311   -8.0776    0.0000 O   0  0  0  0  0  0  0  0  0  0  0  0
    5.2425   -3.9735    0.0000 C   0  0  0  0  0  0  0  0  0  0  0  0
    5.9520   -4.4042    0.0000 C   0  0  0  0  0  0  0  0  0  0  0  0
    4.8244   -4.6765    0.0000 F   0  0  0  0  0  0  0  0  0  0  0  0
    4.3993   -3.9741    0.0000 F   0  0  0  0  0  0  0  0  0  0  0  0
    5.2322   -3.1390    0.0000 C   0  0  0  0  0  0  0  0  0  0  0  0
    4.4967   -2.6496    0.0000 C   0  0  0  0  0  0  0  0  0  0  0  0
    4.5003   -1.9056    0.0000 C   0  0  0  0  0  0  0  0  0  0  0  0
    3.8609   -1.5212    0.0000 C   0  0  0  0  0  0  0  0  0  0  0  0
    3.0684   -2.1442    0.0000 N   0  0  0  0  0  0  0  0  0  0  0  0
    3.7708   -0.6839    0.0000 O   0  0  0  0  0  0  0  0  0  0  0  0
    5.2290   -1.5111    0.0000 C   0  0  0  0  0  0  0  0  0  0  0  0
    5.9150   -1.9053    0.0000 C   0  0  0  0  0  0  0  0  0  0  0  0
    5.9348   -2.7391    0.0000 C   0  0  0  0  0  0  0  0  0  0  0  0
    6.6543   -3.1423    0.0000 F   0  0  0  0  0  0  0  0  0  0  0  0
    6.6543   -3.9741    0.0000 O   0  0  0  0  0  0  0  0  0  0  0  0
    0.9532   -0.6895    0.0000 C   0  0  0  0  0  0  0  0  0  0  0  0
    0.9512   -1.5159    0.0000 C   0  0  0  0  0  0  0  0  0  0  0  0
    0.2218   -0.2957    0.0000 F   0  0  0  0  0  0  0  0  0  0  0  0
    1.6660   -0.2745    0.0000 C   0  0  0  0  0  0  0  0  0  0  0  0
    2.3719   -0.6672    0.0000 C   0  0  0  0  0  0  0  0  0  0  0  0
    2.3713   -1.4991    0.0000 C   0  0  0  0  0  0  0  0  0  0  0  0
    1.6632   -1.9225    0.0000 C   0  0  0  0  0  0  0  0  0  0  0  0
    0.2339   -1.9408    0.0000 C   0  0  0  0  0  0  0  0  0  0  0  0
  1  2  1  0  0  0  0
  1  8  1  0  0  0  0
  2  3  1  0  0  0  0
  3  4  1  0  0  0  0
  4  5  1  0  0  0  0
  5 11  1  0  0  0  0
  6  5  1  0  0  0  0
  6  7  1  0  0  0  0
  7  2  1  0  0  0  0
  9  1  2  0  0  0  0
 10 11  1  0  0  0  0
 10 12  1  0  0  0  0
 10 14  1  0  0  0  0
 11 24  2  0  0  0  0
 13 10  1  0  0  0  0
 14 22  2  0  0  0  0
 15 14  1  0  0  0  0
 15 16  2  0  0  0  0
 16 20  1  0  0  0  0
 17 16  1  0  0  0  0
 17 18  1  0  0  0  0
 18 30  1  0  0  0  0
 19 17  2  0  0  0  0
 20 21  2  0  0  0  0
 22 23  1  0  0  0  0
 22 21  1  0  0  0  0
 25 26  1  0  0  0  0
 25 28  2  0  0  0  0
 26 31  2  0  0  0  0
 27 25  1  0  0  0  0
 29 28  1  0  0  0  0
 30 29  2  0  0  0  0
 31 30  1  0  0  0  0
 32 26  1  0  0  0  0
M  END
> <ID>
SCHEMBL21146267

> <InChIKey>
CIDGUOCIWDNVJS-UHFFFAOYSA-N

> <MW>
451.422

> <Series_Name>
Series_18

$$$$
SCHEMBL21146269
  Mrv1719007181908472D 0   0.00000     0.00000     0

 32 35  0  0  1  0              1 V2000 
    5.6259   -6.6482    0.0000 C   0  0  2  0  0  0  0  0  0  0  0  0
    6.3180   -6.1420    0.0000 N   0  0  0  0  0  0  0  0  0  0  0  0
    6.0624   -7.2301    0.0000 C   0  0  0  0  0  0  0  0  0  0  0  0
    6.6002   -7.2226    0.0000 C   0  0  0  0  0  0  0  0  0  0  0  0
    7.0329   -6.5442    0.0000 C   0  0  1  0  0  0  0  0  0  0  0  0
    7.0490   -7.3809    0.0000 C   0  0  0  0  0  0  0  0  0  0  0  0
    6.3327   -7.7619    0.0000 C   0  0  1  0  0  0  0  0  0  0  0  0
    5.6273   -7.3743    0.0000 C   0  0  0  0  0  0  0  0  0  0  0  0
    5.6349   -4.9151    0.0000 C   0  0  0  0  0  0  0  0  0  0  0  0
    6.3352   -5.3554    0.0000 C   0  0  0  0  0  0  0  0  0  0  0  0
    5.1835   -5.6138    0.0000 F   0  0  0  0  0  0  0  0  0  0  0  0
    4.7532   -4.9097    0.0000 F   0  0  0  0  0  0  0  0  0  0  0  0
    4.0727   -2.4907    0.0000 C   0  0  0  0  0  0  0  0  0  0  0  0
    4.8809   -2.8397    0.0000 C   0  0  0  0  0  0  0  0  0  0  0  0
    4.1469   -1.6431    0.0000 O   0  0  0  0  0  0  0  0  0  0  0  0
    5.6036   -2.4295    0.0000 C   0  0  0  0  0  0  0  0  0  0  0  0
    6.3046   -2.8314    0.0000 C   0  0  0  0  0  0  0  0  0  0  0  0
    6.3123   -3.6692    0.0000 C   0  0  0  0  0  0  0  0  0  0  0  0
    7.0222   -4.0882    0.0000 F   0  0  0  0  0  0  0  0  0  0  0  0
    5.6063   -4.0753    0.0000 C   0  0  0  0  0  0  0  0  0  0  0  0
    7.0417   -4.8901    0.0000 O   0  0  0  0  0  0  0  0  0  0  0  0
    4.8911   -3.6641    0.0000 C   0  0  0  0  0  0  0  0  0  0  0  0
    0.4046   -2.8803    0.0000 Cl  0  0  0  0  0  0  0  0  0  0  0  0
    1.2848   -2.4575    0.0000 C   0  0  0  0  0  0  0  0  0  0  0  0
    1.2807   -1.6265    0.0000 C   0  0  0  0  0  0  0  0  0  0  0  0
    0.5478   -1.2323    0.0000 F   0  0  0  0  0  0  0  0  0  0  0  0
    2.0045   -1.2168    0.0000 C   0  0  0  0  0  0  0  0  0  0  0  0
    2.7055   -1.6186    0.0000 C   0  0  0  0  0  0  0  0  0  0  0  0
    2.7134   -2.4559    0.0000 C   0  0  0  0  0  0  0  0  0  0  0  0
    3.4231   -3.1101    0.0000 N   0  0  0  0  0  0  0  0  0  0  0  0
    2.0157   -2.8446    0.0000 C   0  0  0  0  0  0  0  0  0  0  0  0
    6.3180   -8.6066    0.0000 O   0  0  0  0  0  0  0  0  0  0  0  0
  1  2  1  6  0  0  0
  1  3  1  0  0  0  0
  1  8  1  0  0  0  0
  2 10  1  0  0  0  0
  3  4  1  0  0  0  0
  5  4  1  0  0  0  0
  5  2  1  6  0  0  0
  5  6  1  0  0  0  0
  7  6  1  0  0  0  0
  7  8  1  0  0  0  0
  7 32  1  6  0  0  0
  9 10  1  0  0  0  0
  9 20  1  0  0  0  0
 10 21  2  0  0  0  0
 11  9  1  0  0  0  0
 12  9  1  0  0  0  0
 13 14  1  0  0  0  0
 13 15  2  0  0  0  0
 14 22  2  0  0  0  0
 16 14  1  0  0  0  0
 16 17  2  0  0  0  0
 18 19  1  0  0  0  0
 18 17  1  0  0  0  0
 20 18  2  0  0  0  0
 22 20  1  0  0  0  0
 23 24  1  0  0  0  0
 24 31  2  0  0  0  0
 25 24  1  0  0  0  0
 25 27  2  0  0  0  0
 26 25  1  0  0  0  0
 27 28  1  0  0  0  0
 28 29  2  0  0  0  0
 29 30  1  0  0  0  0
 29 31  1  0  0  0  0
 30 13  1  0  0  0  0
M  END
> <ID>
SCHEMBL21146269

> <InChIKey>
RBPHVJATULQGSN-QDMKHBRRSA-N

> <MW>
470.85

> <Series_Name>
Series_18

$$$$
SCHEMBL21146270
  Mrv1719007181908472D 0   0.00000     0.00000     0

 30 32  0  0  0  0              1 V2000 
    5.2358   -5.6076    0.0000 C   0  0  0  0  0  0  0  0  0  0  0  0
    5.9198   -5.2056    0.0000 N   0  0  0  0  0  0  0  0  0  0  0  0
    5.2458   -6.4334    0.0000 C   0  0  0  0  0  0  0  0  0  0  0  0
    5.9283   -6.8374    0.0000 C   0  0  0  0  0  0  0  0  0  0  0  0
    6.6414   -6.4390    0.0000 C   0  0  0  0  0  0  0  0  0  0  0  0
    6.6468   -5.6033    0.0000 C   0  0  0  0  0  0  0  0  0  0  0  0
    6.1266   -7.6675    0.0000 O   0  0  0  0  0  0  0  0  0  0  0  0
    5.2021   -3.9585    0.0000 C   0  0  0  0  0  0  0  0  0  0  0  0
    5.9229   -4.4066    0.0000 C   0  0  0  0  0  0  0  0  0  0  0  0
    4.8111   -4.6795    0.0000 F   0  0  0  0  0  0  0  0  0  0  0  0
    4.3788   -3.9653    0.0000 F   0  0  0  0  0  0  0  0  0  0  0  0
    4.5000   -2.7267    0.0000 C   0  0  0  0  0  0  0  0  0  0  0  0
    5.2221   -3.1360    0.0000 C   0  0  0  0  0  0  0  0  0  0  0  0
    3.6492   -3.1478    0.0000 Cl  0  0  0  0  0  0  0  0  0  0  0  0
    4.4995   -1.9019    0.0000 C   0  0  0  0  0  0  0  0  0  0  0  0
    3.8452   -1.5175    0.0000 C   0  0  0  0  0  0  0  0  0  0  0  0
    3.0632   -2.1424    0.0000 N   0  0  0  0  0  0  0  0  0  0  0  0
    3.7774   -0.6765    0.0000 O   0  0  0  0  0  0  0  0  0  0  0  0
    5.9022   -2.7282    0.0000 C   0  0  0  0  0  0  0  0  0  0  0  0
    6.5964   -3.9653    0.0000 O   0  0  0  0  0  0  0  0  0  0  0  0
    5.8986   -1.8965    0.0000 C   0  0  0  0  0  0  0  0  0  0  0  0
    5.2179   -1.4963    0.0000 C   0  0  0  0  0  0  0  0  0  0  0  0
    0.9504   -0.6828    0.0000 C   0  0  0  0  0  0  0  0  0  0  0  0
    0.9509   -1.5115    0.0000 C   0  0  0  0  0  0  0  0  0  0  0  0
    0.2255   -0.2819    0.0000 F   0  0  0  0  0  0  0  0  0  0  0  0
    1.7255   -0.2890    0.0000 C   0  0  0  0  0  0  0  0  0  0  0  0
    2.3741   -0.6609    0.0000 C   0  0  0  0  0  0  0  0  0  0  0  0
    2.3854   -1.4884    0.0000 C   0  0  0  0  0  0  0  0  0  0  0  0
    1.6427   -1.9028    0.0000 C   0  0  0  0  0  0  0  0  0  0  0  0
    0.2492   -1.9161    0.0000 C   0  0  0  0  0  0  0  0  0  0  0  0
  1  2  1  0  0  0  0
  1  3  1  0  0  0  0
  2  6  1  0  0  0  0
  2  9  1  0  0  0  0
  3  4  1  0  0  0  0
  4  5  1  0  0  0  0
  6  5  1  0  0  0  0
  7  4  1  0  0  0  0
  8  9  1  0  0  0  0
  8 13  1  0  0  0  0
  9 20  2  0  0  0  0
 10  8  1  0  0  0  0
 11  8  1  0  0  0  0
 12 13  1  0  0  0  0
 12 14  1  0  0  0  0
 13 19  2  0  0  0  0
 15 12  2  0  0  0  0
 15 22  1  0  0  0  0
 16 15  1  0  0  0  0
 16 17  1  0  0  0  0
 18 16  2  0  0  0  0
 21 19  1  0  0  0  0
 22 21  2  0  0  0  0
 23 24  1  0  0  0  0
 23 26  2  0  0  0  0
 24 29  2  0  0  0  0
 25 23  1  0  0  0  0
 26 27  1  0  0  0  0
 27 28  2  0  0  0  0
 28 17  1  0  0  0  0
 29 28  1  0  0  0  0
 30 24  1  0  0  0  0
M  END
> <ID>
SCHEMBL21146270

> <InChIKey>
KQBGPZXLTHAHPW-UHFFFAOYSA-N

> <MW>
440.85

> <Series_Name>
Series_18

$$$$
SCHEMBL21146273
  Mrv1719007181908472D 0   0.00000     0.00000     0

 32 34  0  0  0  0              1 V2000 
    5.6113   -7.6321    0.0000 O   0  0  0  0  0  0  0  0  0  0  0  0
    6.2791   -6.9051    0.0000 C   0  0  0  0  0  0  0  0  0  0  0  0
    6.2223   -5.2448    0.0000 N   0  0  0  0  0  0  0  0  0  0  0  0
    5.5455   -5.6741    0.0000 C   0  0  0  0  0  0  0  0  0  0  0  0
    5.5426   -6.4843    0.0000 C   0  0  0  0  0  0  0  0  0  0  0  0
    6.9566   -6.4890    0.0000 C   0  0  0  0  0  0  0  0  0  0  0  0
    6.9618   -5.6640    0.0000 C   0  0  0  0  0  0  0  0  0  0  0  0
    6.6612   -7.6230    0.0000 C   0  0  0  0  0  0  0  0  0  0  0  0
    7.6697   -7.6134    0.0000 O   0  0  0  0  0  0  0  0  0  0  0  0
    5.5179   -4.0101    0.0000 C   0  0  0  0  0  0  0  0  0  0  0  0
    5.1132   -4.7184    0.0000 F   0  0  0  0  0  0  0  0  0  0  0  0
    4.6996   -4.0040    0.0000 F   0  0  0  0  0  0  0  0  0  0  0  0
    5.5187   -3.1663    0.0000 C   0  0  0  0  0  0  0  0  0  0  0  0
    4.8143   -1.9338    0.0000 C   0  0  0  0  0  0  0  0  0  0  0  0
    4.8272   -2.7621    0.0000 C   0  0  0  0  0  0  0  0  0  0  0  0
    4.0447   -1.5447    0.0000 C   0  0  0  0  0  0  0  0  0  0  0  0
    3.3743   -2.1712    0.0000 N   0  0  0  0  0  0  0  0  0  0  0  0
    4.0793   -0.6956    0.0000 O   0  0  0  0  0  0  0  0  0  0  0  0
    5.5340   -1.5285    0.0000 C   0  0  0  0  0  0  0  0  0  0  0  0
    6.2288   -1.9251    0.0000 C   0  0  0  0  0  0  0  0  0  0  0  0
    6.2330   -2.7622    0.0000 C   0  0  0  0  0  0  0  0  0  0  0  0
    6.9366   -3.1769    0.0000 F   0  0  0  0  0  0  0  0  0  0  0  0
    6.1889   -4.3729    0.0000 C   0  0  0  0  0  0  0  0  0  0  0  0
    6.9178   -4.0040    0.0000 O   0  0  0  0  0  0  0  0  0  0  0  0
    0.4076   -1.9644    0.0000 Cl  0  0  0  0  0  0  0  0  0  0  0  0
    1.2690   -1.5379    0.0000 C   0  0  0  0  0  0  0  0  0  0  0  0
    1.2702   -0.7017    0.0000 C   0  0  0  0  0  0  0  0  0  0  0  0
    0.5451   -0.3008    0.0000 F   0  0  0  0  0  0  0  0  0  0  0  0
    1.9874   -0.2692    0.0000 C   0  0  0  0  0  0  0  0  0  0  0  0
    2.6764   -0.6721    0.0000 C   0  0  0  0  0  0  0  0  0  0  0  0
    2.6843   -1.5233    0.0000 C   0  0  0  0  0  0  0  0  0  0  0  0
    1.9851   -1.9311    0.0000 C   0  0  0  0  0  0  0  0  0  0  0  0
  1  2  1  0  0  0  0
  2  8  1  0  0  0  0
  3  4  1  0  0  0  0
  3 23  1  0  0  0  0
  4  5  1  0  0  0  0
  5  2  1  0  0  0  0
  6  7  1  0  0  0  0
  6  2  1  0  0  0  0
  7  3  1  0  0  0  0
  9  8  1  0  0  0  0
 10 11  1  0  0  0  0
 10 13  1  0  0  0  0
 10 23  1  0  0  0  0
 12 10  1  0  0  0  0
 13 21  2  0  0  0  0
 14 15  2  0  0  0  0
 14 16  1  0  0  0  0
 14 19  1  0  0  0  0
 15 13  1  0  0  0  0
 16 18  2  0  0  0  0
 17 16  1  0  0  0  0
 19 20  2  0  0  0  0
 21 22  1  0  0  0  0
 21 20  1  0  0  0  0
 23 24  2  0  0  0  0
 25 26  1  0  0  0  0
 26 32  2  0  0  0  0
 27 26  1  0  0  0  0
 27 29  2  0  0  0  0
 28 27  1  0  0  0  0
 29 30  1  0  0  0  0
 30 31  2  0  0  0  0
 31 17  1  0  0  0  0
 32 31  1  0  0  0  0
M  END
> <ID>
SCHEMBL21146273

> <InChIKey>
GNPYAEZZMZUVDS-UHFFFAOYSA-N

> <MW>
474.84

> <Series_Name>
Series_18

$$$$
SCHEMBL21146274
  Mrv1719007181908472D 0   0.00000     0.00000     0

 33 36  0  0  1  0              1 V2000 
    5.9801   -7.6868    0.0000 C   0  0  1  0  0  0  0  0  0  0  0  0
    5.2505   -7.2750    0.0000 C   0  0  0  0  0  0  0  0  0  0  0  0
    5.3125   -6.5604    0.0000 C   0  0  2  0  0  0  0  0  0  0  0  0
    5.9506   -6.0430    0.0000 N   0  0  0  0  0  0  0  0  0  0  0  0
    6.6669   -6.4473    0.0000 C   0  0  1  0  0  0  0  0  0  0  0  0
    6.3078   -7.1104    0.0000 C   0  0  0  0  0  0  0  0  0  0  0  0
    6.6748   -7.2817    0.0000 C   0  0  0  0  0  0  0  0  0  0  0  0
    6.1631   -8.5193    0.0000 O   0  0  0  0  0  0  0  0  0  0  0  0
    5.6869   -7.1413    0.0000 C   0  0  0  0  0  0  0  0  0  0  0  0
    5.2338   -4.8025    0.0000 C   0  0  0  0  0  0  0  0  0  0  0  0
    5.9618   -5.2637    0.0000 C   0  0  0  0  0  0  0  0  0  0  0  0
    4.8048   -5.5256    0.0000 F   0  0  0  0  0  0  0  0  0  0  0  0
    4.3983   -4.8048    0.0000 F   0  0  0  0  0  0  0  0  0  0  0  0
    4.5152   -3.5616    0.0000 C   0  0  0  0  0  0  0  0  0  0  0  0
    5.2408   -3.9751    0.0000 C   0  0  0  0  0  0  0  0  0  0  0  0
    4.5177   -2.7371    0.0000 C   0  0  0  0  0  0  0  0  0  0  0  0
    3.7814   -2.3526    0.0000 C   0  0  0  0  0  0  0  0  0  0  0  0
    3.0677   -3.0030    0.0000 N   0  0  0  0  0  0  0  0  0  0  0  0
    3.7884   -1.5154    0.0000 O   0  0  0  0  0  0  0  0  0  0  0  0
    5.2458   -2.3321    0.0000 C   0  0  0  0  0  0  0  0  0  0  0  0
    5.9315   -2.7280    0.0000 C   0  0  0  0  0  0  0  0  0  0  0  0
    5.9368   -3.5676    0.0000 C   0  0  0  0  0  0  0  0  0  0  0  0
    6.6529   -3.9732    0.0000 F   0  0  0  0  0  0  0  0  0  0  0  0
    6.6529   -4.8048    0.0000 O   0  0  0  0  0  0  0  0  0  0  0  0
    0.2217   -2.7720    0.0000 F   0  0  0  0  0  0  0  0  0  0  0  0
    0.9506   -2.3478    0.0000 C   0  0  0  0  0  0  0  0  0  0  0  0
    0.9497   -1.5215    0.0000 C   0  0  0  0  0  0  0  0  0  0  0  0
    0.2217   -1.1088    0.0000 F   0  0  0  0  0  0  0  0  0  0  0  0
    1.6522   -1.1118    0.0000 C   0  0  0  0  0  0  0  0  0  0  0  0
    1.6262   -0.2957    0.0000 F   0  0  0  0  0  0  0  0  0  0  0  0
    2.3715   -1.5128    0.0000 C   0  0  0  0  0  0  0  0  0  0  0  0
    2.3687   -2.3473    0.0000 C   0  0  0  0  0  0  0  0  0  0  0  0
    1.6754   -2.7419    0.0000 C   0  0  0  0  0  0  0  0  0  0  0  0
  1  2  1  0  0  0  0
  1  8  1  1  0  0  0
  1  7  1  0  0  0  0
  3  2  1  0  0  0  0
  3  9  1  0  0  0  0
  3  4  1  6  0  0  0
  5  4  1  6  0  0  0
  4 11  1  0  0  0  0
  5  6  1  0  0  0  0
  5  7  1  0  0  0  0
  9  6  1  0  0  0  0
 10 11  1  0  0  0  0
 10 12  1  0  0  0  0
 10 15  1  0  0  0  0
 11 24  2  0  0  0  0
 13 10  1  0  0  0  0
 14 15  1  0  0  0  0
 14 16  2  0  0  0  0
 15 22  2  0  0  0  0
 16 17  1  0  0  0  0
 16 20  1  0  0  0  0
 17 19  2  0  0  0  0
 18 17  1  0  0  0  0
 18 32  1  0  0  0  0
 20 21  2  0  0  0  0
 22 23  1  0  0  0  0
 22 21  1  0  0  0  0
 25 26  1  0  0  0  0
 26 27  1  0  0  0  0
 26 33  2  0  0  0  0
 27 29  2  0  0  0  0
 28 27  1  0  0  0  0
 29 30  1  0  0  0  0
 29 31  1  0  0  0  0
 32 31  2  0  0  0  0
 33 32  1  0  0  0  0
M  END
> <ID>
SCHEMBL21146274

> <InChIKey>
UECQSWTXALSGNI-WDNDVIMCSA-N

> <MW>
472.387

> <Series_Name>
Series_18

$$$$
SCHEMBL21146276
  Mrv1719007181908472D 0   0.00000     0.00000     0

 32 35  0  0  1  0              1 V2000 
   14.2622  -12.1218    0.0000 C   0  0  0  0  0  0  0  0  0  0  0  0
   14.3115  -11.4276    0.0000 C   0  0  2  0  0  0  0  0  0  0  0  0
   14.9575  -10.8997    0.0000 N   0  0  0  0  0  0  0  0  0  0  0  0
   15.6582  -11.3817    0.0000 C   0  0  2  0  0  0  0  0  0  0  0  0
   15.7104  -12.1414    0.0000 C   0  0  0  0  0  0  0  0  0  0  0  0
   14.9831  -12.5309    0.0000 C   0  0  2  0  0  0  0  0  0  0  0  0
   15.3326  -11.9721    0.0000 C   0  0  0  0  0  0  0  0  0  0  0  0
   14.7026  -11.9987    0.0000 C   0  0  0  0  0  0  0  0  0  0  0  0
   14.2555   -9.6025    0.0000 C   0  0  0  0  0  0  0  0  0  0  0  0
   14.9766  -10.1027    0.0000 C   0  0  0  0  0  0  0  0  0  0  0  0
   13.8111  -10.3174    0.0000 F   0  0  0  0  0  0  0  0  0  0  0  0
   13.4108   -9.6259    0.0000 F   0  0  0  0  0  0  0  0  0  0  0  0
   13.5433   -8.3683    0.0000 C   0  0  0  0  0  0  0  0  0  0  0  0
   14.2581   -8.7718    0.0000 C   0  0  0  0  0  0  0  0  0  0  0  0
   13.5393   -7.5521    0.0000 C   0  0  0  0  0  0  0  0  0  0  0  0
   12.8307   -7.1429    0.0000 C   0  0  0  0  0  0  0  0  0  0  0  0
   12.0825   -7.7881    0.0000 N   0  0  0  0  0  0  0  0  0  0  0  0
   12.8103   -6.3142    0.0000 O   0  0  0  0  0  0  0  0  0  0  0  0
   14.9725   -8.3742    0.0000 C   0  0  0  0  0  0  0  0  0  0  0  0
   14.9802   -7.5371    0.0000 C   0  0  0  0  0  0  0  0  0  0  0  0
   15.6672   -8.7889    0.0000 F   0  0  0  0  0  0  0  0  0  0  0  0
   15.6672   -9.6078    0.0000 O   0  0  0  0  0  0  0  0  0  0  0  0
   14.2675   -7.1244    0.0000 C   0  0  0  0  0  0  0  0  0  0  0  0
    9.2438   -7.5293    0.0000 C   0  0  0  0  0  0  0  0  0  0  0  0
    9.9518   -7.1168    0.0000 C   0  0  0  0  0  0  0  0  0  0  0  0
    9.9445   -6.2884    0.0000 C   0  0  0  0  0  0  0  0  0  0  0  0
    9.2256   -5.8775    0.0000 F   0  0  0  0  0  0  0  0  0  0  0  0
   10.6702   -5.8852    0.0000 C   0  0  0  0  0  0  0  0  0  0  0  0
   11.3777   -6.2910    0.0000 C   0  0  0  0  0  0  0  0  0  0  0  0
   11.4061   -7.1281    0.0000 C   0  0  0  0  0  0  0  0  0  0  0  0
   10.6790   -7.5322    0.0000 C   0  0  0  0  0  0  0  0  0  0  0  0
   15.1759  -13.3926    0.0000 O   0  0  0  0  0  0  0  0  0  0  0  0
  6  1  1  0  0  0  0
  2  1  1  0  0  0  0
  2  8  1  0  0  0  0
  2  3  1  6  0  0  0
  3 10  1  0  0  0  0
  4  3  1  6  0  0  0
  4  7  1  0  0  0  0
  4  5  1  0  0  0  0
  6  5  1  0  0  0  0
  6 32  1  6  0  0  0
  8  7  1  0  0  0  0
  9 10  1  0  0  0  0
  9 11  1  0  0  0  0
  9 14  1  0  0  0  0
 10 22  2  0  0  0  0
 12  9  1  0  0  0  0
 13 14  1  0  0  0  0
 14 19  2  0  0  0  0
 15 13  2  0  0  0  0
 15 23  1  0  0  0  0
 16 15  1  0  0  0  0
 16 17  1  0  0  0  0
 18 16  2  0  0  0  0
 19 20  1  0  0  0  0
 19 21  1  0  0  0  0
 23 20  2  0  0  0  0
 24 25  1  0  0  0  0
 25 26  1  0  0  0  0
 25 31  2  0  0  0  0
 26 28  2  0  0  0  0
 27 26  1  0  0  0  0
 28 29  1  0  0  0  0
 29 30  2  0  0  0  0
 30 17  1  0  0  0  0
 31 30  1  0  0  0  0
M  END
> <ID>
SCHEMBL21146276

> <InChIKey>
BOAMJKYIVGBEEZ-BJWYYQGGSA-N

> <MW>
450.434

> <Series_Name>
Series_18

$$$$
SCHEMBL21146277
  Mrv1719007181908472D 0   0.00000     0.00000     0

 32 35  0  0  1  0              1 V2000 
    5.5967   -5.7630    0.0000 C   0  0  2  0  0  0  0  0  0  0  0  0
    6.2989   -5.2076    0.0000 N   0  0  0  0  0  0  0  0  0  0  0  0
    6.0384   -6.2990    0.0000 C   0  0  0  0  0  0  0  0  0  0  0  0
    7.0303   -5.6421    0.0000 C   0  0  1  0  0  0  0  0  0  0  0  0
    6.6120   -6.2930    0.0000 C   0  0  0  0  0  0  0  0  0  0  0  0
    6.3246   -6.8357    0.0000 C   0  0  1  0  0  0  0  0  0  0  0  0
    6.5382   -7.6774    0.0000 O   0  0  0  0  0  0  0  0  0  0  0  0
    5.6073   -6.4278    0.0000 C   0  0  0  0  0  0  0  0  0  0  0  0
    7.0387   -6.4445    0.0000 C   0  0  0  0  0  0  0  0  0  0  0  0
    5.6068   -3.9820    0.0000 C   0  0  0  0  0  0  0  0  0  0  0  0
    6.2687   -4.3337    0.0000 C   0  0  0  0  0  0  0  0  0  0  0  0
    5.1693   -4.6907    0.0000 F   0  0  0  0  0  0  0  0  0  0  0  0
    4.7481   -3.9632    0.0000 F   0  0  0  0  0  0  0  0  0  0  0  0
    4.8692   -2.7324    0.0000 C   0  0  0  0  0  0  0  0  0  0  0  0
    5.6013   -3.1429    0.0000 C   0  0  0  0  0  0  0  0  0  0  0  0
    4.8726   -1.9125    0.0000 C   0  0  0  0  0  0  0  0  0  0  0  0
    4.0753   -1.5323    0.0000 C   0  0  0  0  0  0  0  0  0  0  0  0
    3.4079   -2.1539    0.0000 N   0  0  0  0  0  0  0  0  0  0  0  0
    4.1163   -0.6892    0.0000 O   0  0  0  0  0  0  0  0  0  0  0  0
    5.5866   -1.5034    0.0000 C   0  0  0  0  0  0  0  0  0  0  0  0
    6.3252   -1.9087    0.0000 C   0  0  0  0  0  0  0  0  0  0  0  0
    6.3303   -2.7330    0.0000 C   0  0  0  0  0  0  0  0  0  0  0  0
    7.0265   -3.1399    0.0000 F   0  0  0  0  0  0  0  0  0  0  0  0
    7.0265   -3.9632    0.0000 O   0  0  0  0  0  0  0  0  0  0  0  0
    0.4206   -1.9705    0.0000 Br  0  0  0  0  0  0  0  0  0  0  0  0
    1.2557   -1.5214    0.0000 C   0  0  0  0  0  0  0  0  0  0  0  0
    1.2550   -0.6964    0.0000 C   0  0  0  0  0  0  0  0  0  0  0  0
    0.5169   -0.2872    0.0000 F   0  0  0  0  0  0  0  0  0  0  0  0
    1.9841   -0.2670    0.0000 C   0  0  0  0  0  0  0  0  0  0  0  0
    2.6864   -0.6699    0.0000 C   0  0  0  0  0  0  0  0  0  0  0  0
    2.6927   -1.5033    0.0000 C   0  0  0  0  0  0  0  0  0  0  0  0
    2.0167   -1.9098    0.0000 C   0  0  0  0  0  0  0  0  0  0  0  0
  1  2  1  6  0  0  0
  1  3  1  0  0  0  0
  1  8  1  0  0  0  0
  2 11  1  0  0  0  0
  4  5  1  0  0  0  0
  4  2  1  6  0  0  0
  4  9  1  0  0  0  0
  5  3  1  0  0  0  0
  6  7  1  1  0  0  0
  6  9  1  0  0  0  0
  6  8  1  0  0  0  0
 10 11  1  0  0  0  0
 10 12  1  0  0  0  0
 10 15  1  0  0  0  0
 11 24  2  0  0  0  0
 13 10  1  0  0  0  0
 14 15  1  0  0  0  0
 14 16  2  0  0  0  0
 15 22  2  0  0  0  0
 16 17  1  0  0  0  0
 16 20  1  0  0  0  0
 17 19  2  0  0  0  0
 18 17  1  0  0  0  0
 20 21  2  0  0  0  0
 22 21  1  0  0  0  0
 22 23  1  0  0  0  0
 25 26  1  0  0  0  0
 26 32  2  0  0  0  0
 27 26  1  0  0  0  0
 27 29  2  0  0  0  0
 28 27  1  0  0  0  0
 29 30  1  0  0  0  0
 30 31  2  0  0  0  0
 31 18  1  0  0  0  0
 31 32  1  0  0  0  0
M  END
> <ID>
SCHEMBL21146277

> <InChIKey>
OWRPJKPUUHAZHZ-FICVDOATSA-N

> <MW>
515.303

> <Series_Name>
Series_18

$$$$
SCHEMBL21146281
  Mrv1719007181908472D 0   0.00000     0.00000     0

 33 35  0  0  0  0              1 V2000 
    5.3686   -8.3579    0.0000 O   0  0  0  0  0  0  0  0  0  0  0  0
    6.0480   -7.6623    0.0000 C   0  0  0  0  0  0  0  0  0  0  0  0
    5.3038   -7.2363    0.0000 C   0  0  0  0  0  0  0  0  0  0  0  0
    5.2919   -6.4321    0.0000 C   0  0  0  0  0  0  0  0  0  0  0  0
    5.9990   -6.0193    0.0000 N   0  0  0  0  0  0  0  0  0  0  0  0
    6.7378   -7.2521    0.0000 C   0  0  0  0  0  0  0  0  0  0  0  0
    6.7285   -6.4221    0.0000 C   0  0  0  0  0  0  0  0  0  0  0  0
    6.4518   -8.3697    0.0000 C   0  0  0  0  0  0  0  0  0  0  0  0
    7.4632   -8.3477    0.0000 O   0  0  0  0  0  0  0  0  0  0  0  0
    5.2750   -4.8094    0.0000 C   0  0  0  0  0  0  0  0  0  0  0  0
    4.8602   -5.4906    0.0000 F   0  0  0  0  0  0  0  0  0  0  0  0
    4.4332   -4.7992    0.0000 F   0  0  0  0  0  0  0  0  0  0  0  0
    5.2687   -3.9635    0.0000 C   0  0  0  0  0  0  0  0  0  0  0  0
    4.5679   -3.5611    0.0000 C   0  0  0  0  0  0  0  0  0  0  0  0
    4.5645   -2.7360    0.0000 C   0  0  0  0  0  0  0  0  0  0  0  0
    3.9127   -2.3585    0.0000 C   0  0  0  0  0  0  0  0  0  0  0  0
    3.1012   -2.9792    0.0000 N   0  0  0  0  0  0  0  0  0  0  0  0
    3.8231   -1.5252    0.0000 O   0  0  0  0  0  0  0  0  0  0  0  0
    5.2909   -2.3251    0.0000 C   0  0  0  0  0  0  0  0  0  0  0  0
    6.0059   -2.7332    0.0000 C   0  0  0  0  0  0  0  0  0  0  0  0
    6.0101   -3.5598    0.0000 C   0  0  0  0  0  0  0  0  0  0  0  0
    6.7107   -3.9654    0.0000 F   0  0  0  0  0  0  0  0  0  0  0  0
    5.9752   -5.1734    0.0000 C   0  0  0  0  0  0  0  0  0  0  0  0
    0.2237   -2.7656    0.0000 F   0  0  0  0  0  0  0  0  0  0  0  0
    0.9686   -2.3553    0.0000 C   0  0  0  0  0  0  0  0  0  0  0  0
    0.9659   -1.5303    0.0000 C   0  0  0  0  0  0  0  0  0  0  0  0
    0.2237   -1.1184    0.0000 F   0  0  0  0  0  0  0  0  0  0  0  0
    1.6748   -1.1086    0.0000 C   0  0  0  0  0  0  0  0  0  0  0  0
    1.6675   -0.2847    0.0000 F   0  0  0  0  0  0  0  0  0  0  0  0
    2.4072   -1.5021    0.0000 C   0  0  0  0  0  0  0  0  0  0  0  0
    2.4134   -2.3314    0.0000 C   0  0  0  0  0  0  0  0  0  0  0  0
    1.6924   -2.7307    0.0000 C   0  0  0  0  0  0  0  0  0  0  0  0
    6.7107   -4.7992    0.0000 O   0  0  0  0  0  0  0  0  0  0  0  0
  1  2  1  0  0  0  0
  2  6  1  0  0  0  0
  2  8  1  0  0  0  0
  3  4  1  0  0  0  0
  3  2  1  0  0  0  0
  4  5  1  0  0  0  0
  5 23  1  0  0  0  0
  6  7  1  0  0  0  0
  7  5  1  0  0  0  0
  9  8  1  0  0  0  0
 10 11  1  0  0  0  0
 10 13  1  0  0  0  0
 10 23  1  0  0  0  0
 12 10  1  0  0  0  0
 13 21  2  0  0  0  0
 14 13  1  0  0  0  0
 15 14  2  0  0  0  0
 15 19  1  0  0  0  0
 16 15  1  0  0  0  0
 16 17  1  0  0  0  0
 18 16  2  0  0  0  0
 19 20  2  0  0  0  0
 21 22  1  0  0  0  0
 21 20  1  0  0  0  0
 23 33  2  0  0  0  0
 24 25  1  0  0  0  0
 25 26  1  0  0  0  0
 25 32  2  0  0  0  0
 26 28  2  0  0  0  0
 27 26  1  0  0  0  0
 28 29  1  0  0  0  0
 28 30  1  0  0  0  0
 30 31  2  0  0  0  0
 31 17  1  0  0  0  0
 32 31  1  0  0  0  0
M  END
> <ID>
SCHEMBL21146281

> <InChIKey>
XIMYZJLCJBUENF-UHFFFAOYSA-N

> <MW>
476.375

> <Series_Name>
Series_18

$$$$
SCHEMBL21146475
  Mrv1719007181909192D 0   0.00000     0.00000     0

 32 35  0  0  1  0              1 V2000 
    5.2773   -6.5438    0.0000 C   0  0  0  0  0  0  0  0  0  0  0  0
    5.3003   -5.7519    0.0000 C   0  0  2  0  0  0  0  0  0  0  0  0
    5.9879   -5.3034    0.0000 N   0  0  0  0  0  0  0  0  0  0  0  0
    5.7131   -6.3949    0.0000 C   0  0  0  0  0  0  0  0  0  0  0  0
    6.2445   -6.4319    0.0000 C   0  0  0  0  0  0  0  0  0  0  0  0
    6.6663   -5.8256    0.0000 C   0  0  1  0  0  0  0  0  0  0  0  0
    6.7173   -6.5597    0.0000 C   0  0  0  0  0  0  0  0  0  0  0  0
    6.0039   -6.9378    0.0000 C   0  0  2  0  0  0  0  0  0  0  0  0
    5.2779   -4.0231    0.0000 C   0  0  0  0  0  0  0  0  0  0  0  0
    5.9741   -4.4181    0.0000 C   0  0  0  0  0  0  0  0  0  0  0  0
    4.8473   -4.7332    0.0000 F   0  0  0  0  0  0  0  0  0  0  0  0
    4.4291   -4.0109    0.0000 F   0  0  0  0  0  0  0  0  0  0  0  0
    5.2756   -3.1806    0.0000 C   0  0  0  0  0  0  0  0  0  0  0  0
    4.5482   -2.7692    0.0000 C   0  0  0  0  0  0  0  0  0  0  0  0
    4.5526   -1.9418    0.0000 C   0  0  0  0  0  0  0  0  0  0  0  0
    3.7634   -1.5656    0.0000 C   0  0  0  0  0  0  0  0  0  0  0  0
    3.0984   -2.1765    0.0000 N   0  0  0  0  0  0  0  0  0  0  0  0
    3.8209   -0.7033    0.0000 O   0  0  0  0  0  0  0  0  0  0  0  0
    5.2260   -1.6122    0.0000 C   0  0  0  0  0  0  0  0  0  0  0  0
    5.9403   -1.9977    0.0000 C   0  0  0  0  0  0  0  0  0  0  0  0
    5.9998   -2.7700    0.0000 C   0  0  0  0  0  0  0  0  0  0  0  0
    6.7101   -3.1935    0.0000 F   0  0  0  0  0  0  0  0  0  0  0  0
    6.6911   -4.0109    0.0000 O   0  0  0  0  0  0  0  0  0  0  0  0
    0.2281   -1.9389    0.0000 F   0  0  0  0  0  0  0  0  0  0  0  0
    0.9637   -1.5348    0.0000 C   0  0  0  0  0  0  0  0  0  0  0  0
    0.9544   -0.7016    0.0000 C   0  0  0  0  0  0  0  0  0  0  0  0
    0.2281   -0.2852    0.0000 F   0  0  0  0  0  0  0  0  0  0  0  0
    1.6883   -0.2880    0.0000 C   0  0  0  0  0  0  0  0  0  0  0  0
    2.4023   -0.6992    0.0000 C   0  0  0  0  0  0  0  0  0  0  0  0
    2.4078   -1.5302    0.0000 C   0  0  0  0  0  0  0  0  0  0  0  0
    1.6905   -1.9251    0.0000 C   0  0  0  0  0  0  0  0  0  0  0  0
    5.9879   -7.7937    0.0000 O   0  0  0  0  0  0  0  0  0  0  0  0
  2  1  1  0  0  0  0
  2  4  1  0  0  0  0
  2  3  1  6  0  0  0
  3 10  1  0  0  0  0
  4  5  1  0  0  0  0
  6  3  1  6  0  0  0
  6  5  1  0  0  0  0
  6  7  1  0  0  0  0
  8  7  1  0  0  0  0
  8  1  1  0  0  0  0
  8 32  1  6  0  0  0
  9 10  1  0  0  0  0
  9 11  1  0  0  0  0
  9 13  1  0  0  0  0
 10 23  2  0  0  0  0
 12  9  1  0  0  0  0
 13 21  2  0  0  0  0
 14 13  1  0  0  0  0
 14 15  2  0  0  0  0
 15 16  1  0  0  0  0
 15 19  1  0  0  0  0
 16 18  2  0  0  0  0
 17 16  1  0  0  0  0
 19 20  2  0  0  0  0
 20 21  1  0  0  0  0
 21 22  1  0  0  0  0
 24 25  1  0  0  0  0
 25 31  2  0  0  0  0
 26 25  1  0  0  0  0
 26 28  2  0  0  0  0
 27 26  1  0  0  0  0
 28 29  1  0  0  0  0
 29 30  2  0  0  0  0
 30 17  1  0  0  0  0
 31 30  1  0  0  0  0
M  END
> <ID>
SCHEMBL21146475

> <InChIKey>
HQNNSYLYYNLKDE-QDMKHBRRSA-N

> <MW>
454.397

> <Series_Name>
Series_18

$$$$
SCHEMBL21146477
  Mrv1719007181909192D 0   0.00000     0.00000     0

 33 36  0  0  1  0              1 V2000 
    5.2664   -6.5300    0.0000 C   0  0  0  0  0  0  0  0  0  0  0  0
    5.2869   -5.7546    0.0000 C   0  0  2  0  0  0  0  0  0  0  0  0
    5.9608   -5.2897    0.0000 N   0  0  0  0  0  0  0  0  0  0  0  0
    5.6518   -6.4317    0.0000 C   0  0  0  0  0  0  0  0  0  0  0  0
    6.0959   -5.7858    0.0000 C   0  0  0  0  0  0  0  0  0  0  0  0
    6.6919   -5.7199    0.0000 C   0  0  1  0  0  0  0  0  0  0  0  0
    6.3152   -6.4114    0.0000 C   0  0  0  0  0  0  0  0  0  0  0  0
    6.6986   -6.5393    0.0000 C   0  0  0  0  0  0  0  0  0  0  0  0
    5.9741   -6.9374    0.0000 C   0  0  0  0  0  0  0  0  0  0  0  0
    6.1780   -7.7767    0.0000 O   0  0  0  0  0  0  0  0  0  0  0  0
    4.8160   -4.7174    0.0000 F   0  0  0  0  0  0  0  0  0  0  0  0
    5.2312   -4.0114    0.0000 C   0  0  0  0  0  0  0  0  0  0  0  0
    4.4015   -4.0068    0.0000 F   0  0  0  0  0  0  0  0  0  0  0  0
    5.2311   -3.1771    0.0000 C   0  0  0  0  0  0  0  0  0  0  0  0
    4.5321   -2.7686    0.0000 C   0  0  0  0  0  0  0  0  0  0  0  0
    4.5317   -1.9416    0.0000 C   0  0  0  0  0  0  0  0  0  0  0  0
    3.8896   -1.5583    0.0000 C   0  0  0  0  0  0  0  0  0  0  0  0
    3.0791   -2.1909    0.0000 N   0  0  0  0  0  0  0  0  0  0  0  0
    3.8095   -0.7106    0.0000 O   0  0  0  0  0  0  0  0  0  0  0  0
    5.2716   -1.5486    0.0000 C   0  0  0  0  0  0  0  0  0  0  0  0
    5.9722   -1.9399    0.0000 C   0  0  0  0  0  0  0  0  0  0  0  0
    5.9611   -2.7683    0.0000 C   0  0  0  0  0  0  0  0  0  0  0  0
    6.6714   -3.1976    0.0000 F   0  0  0  0  0  0  0  0  0  0  0  0
    5.9346   -4.3949    0.0000 C   0  0  0  0  0  0  0  0  0  0  0  0
    0.2368   -1.9480    0.0000 C   0  0  0  0  0  0  0  0  0  0  0  0
    0.9552   -1.5333    0.0000 C   0  0  0  0  0  0  0  0  0  0  0  0
    0.9480   -0.7077    0.0000 C   0  0  0  0  0  0  0  0  0  0  0  0
    0.2171   -0.2961    0.0000 F   0  0  0  0  0  0  0  0  0  0  0  0
    1.6853   -0.3036    0.0000 C   0  0  0  0  0  0  0  0  0  0  0  0
    2.3831   -0.6973    0.0000 C   0  0  0  0  0  0  0  0  0  0  0  0
    2.4013   -1.5482    0.0000 C   0  0  0  0  0  0  0  0  0  0  0  0
    1.6718   -1.9406    0.0000 C   0  0  0  0  0  0  0  0  0  0  0  0
    6.6714   -4.0068    0.0000 O   0  0  0  0  0  0  0  0  0  0  0  0
  1  9  1  0  0  0  0
  2  1  1  0  0  0  0
  2  4  1  0  0  0  0
  2  3  1  6  0  0  0
  3 24  1  0  0  0  0
  4  5  1  0  0  0  0
  6  7  1  0  0  0  0
  6  3  1  6  0  0  0
  6  8  1  0  0  0  0
  7  5  1  0  0  0  0
  8  9  1  0  0  0  0
 10  9  1  0  0  0  0
 11 12  1  0  0  0  0
 12 14  1  0  0  0  0
 12 24  1  0  0  0  0
 13 12  1  0  0  0  0
 14 22  2  0  0  0  0
 15 14  1  0  0  0  0
 16 15  2  0  0  0  0
 16 20  1  0  0  0  0
 17 16  1  0  0  0  0
 17 18  1  0  0  0  0
 19 17  2  0  0  0  0
 20 21  2  0  0  0  0
 22 23  1  0  0  0  0
 22 21  1  0  0  0  0
 24 33  2  0  0  0  0
 25 26  1  0  0  0  0
 26 32  2  0  0  0  0
 27 26  1  0  0  0  0
 27 29  2  0  0  0  0
 28 27  1  0  0  0  0
 29 30  1  0  0  0  0
 30 31  2  0  0  0  0
 31 18  1  0  0  0  0
 32 31  1  0  0  0  0
M  END
> <ID>
SCHEMBL21146477

> <InChIKey>
UIRVQVBUAQZKSV-JWTNVVGKSA-N

> <MW>
464.461

> <Series_Name>
Series_18

$$$$
SCHEMBL21146480
  Mrv1719007181909212D 0   0.00000     0.00000     0

 33 36  0  0  1  0              1 V2000 
    5.2795   -6.4553    0.0000 C   0  0  0  0  0  0  0  0  0  0  0  0
    5.3033   -5.6646    0.0000 C   0  0  2  0  0  0  0  0  0  0  0  0
    5.9854   -5.2270    0.0000 N   0  0  0  0  0  0  0  0  0  0  0  0
    5.7006   -6.3679    0.0000 C   0  0  0  0  0  0  0  0  0  0  0  0
    6.7223   -5.7464    0.0000 C   0  0  1  0  0  0  0  0  0  0  0  0
    6.3152   -6.3582    0.0000 C   0  0  0  0  0  0  0  0  0  0  0  0
    6.7317   -6.4697    0.0000 C   0  0  0  0  0  0  0  0  0  0  0  0
    5.9998   -6.8616    0.0000 C   0  0  2  0  0  0  0  0  0  0  0  0
    5.2317   -3.9949    0.0000 C   0  0  0  0  0  0  0  0  0  0  0  0
    6.0170   -4.4565    0.0000 C   0  0  0  0  0  0  0  0  0  0  0  0
    4.6940   -4.5916    0.0000 F   0  0  0  0  0  0  0  0  0  0  0  0
    4.4686   -3.7921    0.0000 F   0  0  0  0  0  0  0  0  0  0  0  0
    5.2838   -3.1610    0.0000 C   0  0  0  0  0  0  0  0  0  0  0  0
    4.5698   -2.7488    0.0000 C   0  0  0  0  0  0  0  0  0  0  0  0
    3.8729   -1.5436    0.0000 C   0  0  0  0  0  0  0  0  0  0  0  0
    4.5646   -1.9286    0.0000 C   0  0  0  0  0  0  0  0  0  0  0  0
    5.2823   -1.5193    0.0000 C   0  0  0  0  0  0  0  0  0  0  0  0
    5.2680   -0.6969    0.0000 F   0  0  0  0  0  0  0  0  0  0  0  0
    6.0199   -1.9320    0.0000 C   0  0  0  0  0  0  0  0  0  0  0  0
    6.0184   -2.7570    0.0000 C   0  0  0  0  0  0  0  0  0  0  0  0
    6.7029   -3.1772    0.0000 F   0  0  0  0  0  0  0  0  0  0  0  0
    6.7029   -3.9971    0.0000 O   0  0  0  0  0  0  0  0  0  0  0  0
    0.2725   -1.9192    0.0000 C   0  0  0  0  0  0  0  0  0  0  0  0
    0.9640   -1.5220    0.0000 C   0  0  0  0  0  0  0  0  0  0  0  0
    0.9686   -0.6912    0.0000 C   0  0  0  0  0  0  0  0  0  0  0  0
    0.2255   -0.2870    0.0000 F   0  0  0  0  0  0  0  0  0  0  0  0
    1.7080   -0.2911    0.0000 C   0  0  0  0  0  0  0  0  0  0  0  0
    2.3995   -0.6946    0.0000 C   0  0  0  0  0  0  0  0  0  0  0  0
    2.4077   -1.5236    0.0000 C   0  0  0  0  0  0  0  0  0  0  0  0
    3.0952   -2.1728    0.0000 N   0  0  0  0  0  0  0  0  0  0  0  0
    1.6954   -1.9356    0.0000 C   0  0  0  0  0  0  0  0  0  0  0  0
    5.9854   -7.7072    0.0000 O   0  0  0  0  0  0  0  0  0  0  0  0
    3.8331   -0.6969    0.0000 O   0  0  0  0  0  0  0  0  0  0  0  0
  8  1  1  0  0  0  0
  2  1  1  0  0  0  0
  2  3  1  6  0  0  0
  2  4  1  0  0  0  0
  3 10  1  0  0  0  0
  5  6  1  0  0  0  0
  5  3  1  6  0  0  0
  6  4  1  0  0  0  0
  8  7  1  0  0  0  0
  5  7  1  0  0  0  0
  8 32  1  6  0  0  0
  9 10  1  0  0  0  0
  9 11  1  0  0  0  0
  9 12  1  0  0  0  0
  9 13  1  0  0  0  0
 10 22  2  0  0  0  0
 13 20  2  0  0  0  0
 14 13  1  0  0  0  0
 15 16  1  0  0  0  0
 15 30  1  0  0  0  0
 16 14  2  0  0  0  0
 17 16  1  0  0  0  0
 17 19  2  0  0  0  0
 18 17  1  0  0  0  0
 20 19  1  0  0  0  0
 20 21  1  0  0  0  0
 23 24  1  0  0  0  0
 24 25  2  0  0  0  0
 24 31  1  0  0  0  0
 25 26  1  0  0  0  0
 25 27  1  0  0  0  0
 27 28  2  0  0  0  0
 29 30  1  0  0  0  0
 29 28  1  0  0  0  0
 31 29  2  0  0  0  0
 33 15  2  0  0  0  0
M  END
> <ID>
SCHEMBL21146480

> <InChIKey>
YZKRLEZIIBNTTA-QDMKHBRRSA-N

> <MW>
468.424

> <Series_Name>
Series_18

$$$$
SCHEMBL21146482
  Mrv1719007181909212D 0   0.00000     0.00000     0

 32 35  0  0  1  0              1 V2000 
    5.2881   -6.5264    0.0000 C   0  0  0  0  0  0  0  0  0  0  0  0
    5.2965   -5.7083    0.0000 C   0  0  2  0  0  0  0  0  0  0  0  0
    5.9747   -5.2744    0.0000 N   0  0  0  0  0  0  0  0  0  0  0  0
    5.6950   -6.4050    0.0000 C   0  0  0  0  0  0  0  0  0  0  0  0
    6.6985   -5.6988    0.0000 C   0  0  1  0  0  0  0  0  0  0  0  0
    6.2998   -6.3946    0.0000 C   0  0  0  0  0  0  0  0  0  0  0  0
    6.7011   -6.5170    0.0000 C   0  0  0  0  0  0  0  0  0  0  0  0
    5.9870   -6.9118    0.0000 C   0  0  2  0  0  0  0  0  0  0  0  0
    5.2361   -4.0303    0.0000 C   0  0  0  0  0  0  0  0  0  0  0  0
    5.9981   -4.5335    0.0000 C   0  0  0  0  0  0  0  0  0  0  0  0
    4.4646   -3.8300    0.0000 F   0  0  0  0  0  0  0  0  0  0  0  0
    4.5781   -2.7889    0.0000 C   0  0  0  0  0  0  0  0  0  0  0  0
    5.2831   -3.1949    0.0000 C   0  0  0  0  0  0  0  0  0  0  0  0
    3.7691   -1.5771    0.0000 C   0  0  0  0  0  0  0  0  0  0  0  0
    4.5635   -1.9550    0.0000 C   0  0  0  0  0  0  0  0  0  0  0  0
    3.1077   -2.2104    0.0000 N   0  0  0  0  0  0  0  0  0  0  0  0
    3.8081   -0.7223    0.0000 O   0  0  0  0  0  0  0  0  0  0  0  0
    5.2773   -1.5387    0.0000 C   0  0  0  0  0  0  0  0  0  0  0  0
    5.9943   -1.9536    0.0000 C   0  0  0  0  0  0  0  0  0  0  0  0
    6.6969   -1.5539    0.0000 F   0  0  0  0  0  0  0  0  0  0  0  0
    5.9869   -2.7953    0.0000 C   0  0  0  0  0  0  0  0  0  0  0  0
    6.6751   -4.0270    0.0000 O   0  0  0  0  0  0  0  0  0  0  0  0
    0.9767   -0.7084    0.0000 C   0  0  0  0  0  0  0  0  0  0  0  0
    0.9773   -1.5486    0.0000 C   0  0  0  0  0  0  0  0  0  0  0  0
    0.2407   -0.3064    0.0000 F   0  0  0  0  0  0  0  0  0  0  0  0
    1.7085   -0.3180    0.0000 C   0  0  0  0  0  0  0  0  0  0  0  0
    2.4093   -1.5443    0.0000 C   0  0  0  0  0  0  0  0  0  0  0  0
    1.6927   -1.9595    0.0000 C   0  0  0  0  0  0  0  0  0  0  0  0
    0.2653   -1.9611    0.0000 C   0  0  0  0  0  0  0  0  0  0  0  0
    2.4057   -0.7180    0.0000 C   0  0  0  0  0  0  0  0  0  0  0  0
    4.6835   -4.6178    0.0000 F   0  0  0  0  0  0  0  0  0  0  0  0
    5.9747   -7.7694    0.0000 O   0  0  0  0  0  0  0  0  0  0  0  0
  2  1  1  0  0  0  0
  2  4  1  0  0  0  0
  2  3  1  6  0  0  0
  5  3  1  6  0  0  0
  3 10  1  0  0  0  0
  5  6  1  0  0  0  0
  5  7  1  0  0  0  0
  6  4  1  0  0  0  0
  8  7  1  0  0  0  0
  8  1  1  0  0  0  0
  8 32  1  6  0  0  0
  9 10  1  0  0  0  0
  9 11  1  0  0  0  0
  9 13  1  0  0  0  0
  9 31  1  0  0  0  0
 10 22  2  0  0  0  0
 12 13  1  0  0  0  0
 13 21  2  0  0  0  0
 14 15  1  0  0  0  0
 14 17  2  0  0  0  0
 15 12  2  0  0  0  0
 16 14  1  0  0  0  0
 18 15  1  0  0  0  0
 18 19  2  0  0  0  0
 19 20  1  0  0  0  0
 21 19  1  0  0  0  0
 23 24  2  0  0  0  0
 23 26  1  0  0  0  0
 24 28  1  0  0  0  0
 24 29  1  0  0  0  0
 25 23  1  0  0  0  0
 26 30  2  0  0  0  0
 27 16  1  0  0  0  0
 27 30  1  0  0  0  0
 28 27  2  0  0  0  0
M  END
> <ID>
SCHEMBL21146482

> <InChIKey>
YFVFWWDFHMOBBM-REPLKXPHSA-N

> <MW>
450.434

> <Series_Name>
Series_18

$$$$
SCHEMBL21146483
  Mrv1719007181909212D 0   0.00000     0.00000     0

 31 33  0  0  0  0              1 V2000 
    5.8763   -7.7305    0.0000 C   0  0  0  0  0  0  0  0  0  0  0  0
    5.8705   -6.9024    0.0000 C   0  0  0  0  0  0  0  0  0  0  0  0
    5.1599   -6.4833    0.0000 C   0  0  0  0  0  0  0  0  0  0  0  0
    5.1491   -5.6648    0.0000 C   0  0  0  0  0  0  0  0  0  0  0  0
    5.8431   -5.2552    0.0000 N   0  0  0  0  0  0  0  0  0  0  0  0
    6.5707   -6.4986    0.0000 C   0  0  0  0  0  0  0  0  0  0  0  0
    6.5575   -5.6553    0.0000 C   0  0  0  0  0  0  0  0  0  0  0  0
    6.7711   -8.1400    0.0000 O   0  0  0  0  0  0  0  0  0  0  0  0
    5.1453   -4.0115    0.0000 C   0  0  0  0  0  0  0  0  0  0  0  0
    5.8756   -4.4654    0.0000 C   0  0  0  0  0  0  0  0  0  0  0  0
    4.7407   -4.7223    0.0000 F   0  0  0  0  0  0  0  0  0  0  0  0
    4.3364   -4.0057    0.0000 F   0  0  0  0  0  0  0  0  0  0  0  0
    5.1455   -3.1782    0.0000 C   0  0  0  0  0  0  0  0  0  0  0  0
    4.4582   -2.7732    0.0000 C   0  0  0  0  0  0  0  0  0  0  0  0
    4.4476   -1.9440    0.0000 C   0  0  0  0  0  0  0  0  0  0  0  0
    3.8007   -1.5597    0.0000 C   0  0  0  0  0  0  0  0  0  0  0  0
    3.0226   -2.1866    0.0000 N   0  0  0  0  0  0  0  0  0  0  0  0
    3.7301   -0.7166    0.0000 O   0  0  0  0  0  0  0  0  0  0  0  0
    5.1655   -1.5277    0.0000 C   0  0  0  0  0  0  0  0  0  0  0  0
    5.8627   -1.9458    0.0000 C   0  0  0  0  0  0  0  0  0  0  0  0
    5.8689   -2.7684    0.0000 C   0  0  0  0  0  0  0  0  0  0  0  0
    6.5598   -3.1788    0.0000 F   0  0  0  0  0  0  0  0  0  0  0  0
    6.5598   -4.0057    0.0000 O   0  0  0  0  0  0  0  0  0  0  0  0
    0.2205   -1.9477    0.0000 F   0  0  0  0  0  0  0  0  0  0  0  0
    0.9291   -1.5316    0.0000 C   0  0  0  0  0  0  0  0  0  0  0  0
    0.9251   -0.7004    0.0000 C   0  0  0  0  0  0  0  0  0  0  0  0
    0.2205   -0.2940    0.0000 F   0  0  0  0  0  0  0  0  0  0  0  0
    1.6458   -0.2982    0.0000 C   0  0  0  0  0  0  0  0  0  0  0  0
    2.3393   -0.6992    0.0000 C   0  0  0  0  0  0  0  0  0  0  0  0
    2.3453   -1.5358    0.0000 C   0  0  0  0  0  0  0  0  0  0  0  0
    1.6313   -1.9377    0.0000 C   0  0  0  0  0  0  0  0  0  0  0  0
  1  2  1  0  0  0  0
  1  8  1  0  0  0  0
  3  4  1  0  0  0  0
  3  2  1  0  0  0  0
  4  5  1  0  0  0  0
  5 10  1  0  0  0  0
  6  7  1  0  0  0  0
  6  2  1  0  0  0  0
  7  5  1  0  0  0  0
  9 10  1  0  0  0  0
  9 13  1  0  0  0  0
 10 23  2  0  0  0  0
 11  9  1  0  0  0  0
 12  9  1  0  0  0  0
 13 21  2  0  0  0  0
 14 13  1  0  0  0  0
 15 14  2  0  0  0  0
 15 19  1  0  0  0  0
 16 15  1  0  0  0  0
 16 17  1  0  0  0  0
 18 16  2  0  0  0  0
 19 20  2  0  0  0  0
 21 22  1  0  0  0  0
 21 20  1  0  0  0  0
 24 25  1  0  0  0  0
 25 31  2  0  0  0  0
 26 25  1  0  0  0  0
 26 28  2  0  0  0  0
 27 26  1  0  0  0  0
 28 29  1  0  0  0  0
 29 30  2  0  0  0  0
 30 17  1  0  0  0  0
 31 30  1  0  0  0  0
M  END
> <ID>
SCHEMBL21146483

> <InChIKey>
NFXFRRKNAPIRDL-UHFFFAOYSA-N

> <MW>
442.386

> <Series_Name>
Series_18

$$$$
SCHEMBL21146485
  Mrv1719007181909212D 0   0.00000     0.00000     0

 33 36  0  0  1  0              1 V2000 
    6.1008   -7.6622    0.0000 C   0  0  1  0  0  0  0  0  0  0  0  0
    5.3864   -7.2600    0.0000 C   0  0  0  0  0  0  0  0  0  0  0  0
    5.3774   -6.4589    0.0000 C   0  0  2  0  0  0  0  0  0  0  0  0
    6.0525   -6.0123    0.0000 N   0  0  0  0  0  0  0  0  0  0  0  0
    5.8815   -6.9780    0.0000 C   0  0  0  0  0  0  0  0  0  0  0  0
    6.4444   -6.9598    0.0000 C   0  0  0  0  0  0  0  0  0  0  0  0
    6.7299   -6.4548    0.0000 C   0  0  0  0  0  0  0  0  0  0  0  0
    6.8002   -7.2411    0.0000 C   0  0  0  0  0  0  0  0  0  0  0  0
    6.3039   -8.5057    0.0000 O   0  0  0  0  0  0  0  0  0  0  0  0
    5.3187   -4.7862    0.0000 C   0  0  0  0  0  0  0  0  0  0  0  0
    6.0062   -5.1377    0.0000 C   0  0  0  0  0  0  0  0  0  0  0  0
    4.6047   -5.2080    0.0000 F   0  0  0  0  0  0  0  0  0  0  0  0
    4.5846   -4.3835    0.0000 F   0  0  0  0  0  0  0  0  0  0  0  0
    4.5739   -2.7171    0.0000 C   0  0  0  0  0  0  0  0  0  0  0  0
    4.6066   -3.5415    0.0000 C   0  0  0  0  0  0  0  0  0  0  0  0
    3.7654   -2.3627    0.0000 C   0  0  0  0  0  0  0  0  0  0  0  0
    3.8205   -1.5081    0.0000 O   0  0  0  0  0  0  0  0  0  0  0  0
    5.2961   -2.2941    0.0000 C   0  0  0  0  0  0  0  0  0  0  0  0
    6.0240   -2.7006    0.0000 C   0  0  0  0  0  0  0  0  0  0  0  0
    6.0255   -3.5296    0.0000 C   0  0  0  0  0  0  0  0  0  0  0  0
    6.7361   -3.9412    0.0000 F   0  0  0  0  0  0  0  0  0  0  0  0
    5.3278   -3.9490    0.0000 C   0  0  0  0  0  0  0  0  0  0  0  0
    6.7563   -4.7656    0.0000 O   0  0  0  0  0  0  0  0  0  0  0  0
    0.9746   -1.5437    0.0000 C   0  0  0  0  0  0  0  0  0  0  0  0
    0.9776   -2.3701    0.0000 C   0  0  0  0  0  0  0  0  0  0  0  0
    0.2212   -1.1462    0.0000 F   0  0  0  0  0  0  0  0  0  0  0  0
    1.6489   -0.3016    0.0000 F   0  0  0  0  0  0  0  0  0  0  0  0
    1.6825   -1.1210    0.0000 C   0  0  0  0  0  0  0  0  0  0  0  0
    2.4284   -2.3455    0.0000 C   0  0  0  0  0  0  0  0  0  0  0  0
    2.3966   -1.5122    0.0000 C   0  0  0  0  0  0  0  0  0  0  0  0
    3.1167   -2.9961    0.0000 N   0  0  0  0  0  0  0  0  0  0  0  0
    0.2715   -2.8000    0.0000 C   0  0  0  0  0  0  0  0  0  0  0  0
    1.7018   -2.7596    0.0000 C   0  0  0  0  0  0  0  0  0  0  0  0
  1  2  1  0  0  0  0
  1  9  1  1  0  0  0
  1  8  1  0  0  0  0
  3  4  1  6  0  0  0
  3  5  1  0  0  0  0
  3  2  1  0  0  0  0
  4  7  1  0  0  0  0
  4 11  1  0  0  0  0
  6  5  1  0  0  0  0
  7  6  1  0  0  0  0
  7  8  1  0  0  0  0
 10 11  1  0  0  0  0
 10 12  1  0  0  0  0
 10 13  1  0  0  0  0
 11 23  2  0  0  0  0
 14 15  1  0  0  0  0
 14 18  2  0  0  0  0
 15 22  2  0  0  0  0
 16 14  1  0  0  0  0
 16 17  2  0  0  0  0
 18 19  1  0  0  0  0
 19 20  2  0  0  0  0
 20 21  1  0  0  0  0
 22 20  1  0  0  0  0
 22 10  1  0  0  0  0
 24 25  2  0  0  0  0
 24 28  1  0  0  0  0
 25 32  1  0  0  0  0
 25 33  1  0  0  0  0
 26 24  1  0  0  0  0
 27 28  1  0  0  0  0
 28 30  2  0  0  0  0
 29 30  1  0  0  0  0
 29 31  1  0  0  0  0
 31 16  1  0  0  0  0
 33 29  2  0  0  0  0
M  END
> <ID>
SCHEMBL21146485

> <InChIKey>
HWDWBAYKIDXPDA-TUOGLVOQSA-N

> <MW>
468.424

> <Series_Name>
Series_18

$$$$
SCHEMBL21146487
  Mrv1719007181909212D 0   0.00000     0.00000     0

 32 35  0  0  1  0              1 V2000 
    5.3353   -6.4769    0.0000 C   0  0  0  0  0  0  0  0  0  0  0  0
    5.3600   -5.6973    0.0000 C   0  0  2  0  0  0  0  0  0  0  0  0
    6.0285   -5.2421    0.0000 N   0  0  0  0  0  0  0  0  0  0  0  0
    5.7393   -6.3485    0.0000 C   0  0  0  0  0  0  0  0  0  0  0  0
    6.3630   -6.3576    0.0000 C   0  0  0  0  0  0  0  0  0  0  0  0
    6.7751   -5.6615    0.0000 C   0  0  1  0  0  0  0  0  0  0  0  0
    6.7820   -6.4786    0.0000 C   0  0  0  0  0  0  0  0  0  0  0  0
    6.0574   -6.8592    0.0000 C   0  0  2  0  0  0  0  0  0  0  0  0
    5.3219   -3.9978    0.0000 C   0  0  0  0  0  0  0  0  0  0  0  0
    6.0760   -4.4870    0.0000 C   0  0  0  0  0  0  0  0  0  0  0  0
    4.4961   -3.7905    0.0000 F   0  0  0  0  0  0  0  0  0  0  0  0
    4.6095   -2.7693    0.0000 C   0  0  0  0  0  0  0  0  0  0  0  0
    5.3399   -3.1747    0.0000 C   0  0  0  0  0  0  0  0  0  0  0  0
    4.6047   -1.9428    0.0000 C   0  0  0  0  0  0  0  0  0  0  0  0
    3.7981   -1.5641    0.0000 C   0  0  0  0  0  0  0  0  0  0  0  0
    3.8509   -0.7056    0.0000 O   0  0  0  0  0  0  0  0  0  0  0  0
    5.3227   -0.7056    0.0000 F   0  0  0  0  0  0  0  0  0  0  0  0
    5.3307   -1.5346    0.0000 C   0  0  0  0  0  0  0  0  0  0  0  0
    6.0608   -1.9407    0.0000 C   0  0  0  0  0  0  0  0  0  0  0  0
    6.0499   -2.7657    0.0000 C   0  0  0  0  0  0  0  0  0  0  0  0
    6.7543   -3.9921    0.0000 O   0  0  0  0  0  0  0  0  0  0  0  0
    0.9750   -0.7098    0.0000 C   0  0  0  0  0  0  0  0  0  0  0  0
    0.9760   -1.5337    0.0000 C   0  0  0  0  0  0  0  0  0  0  0  0
    0.2218   -0.3024    0.0000 F   0  0  0  0  0  0  0  0  0  0  0  0
    2.4232   -0.7070    0.0000 C   0  0  0  0  0  0  0  0  0  0  0  0
    2.4330   -1.5322    0.0000 C   0  0  0  0  0  0  0  0  0  0  0  0
    3.1251   -2.1875    0.0000 N   0  0  0  0  0  0  0  0  0  0  0  0
    1.6977   -1.9297    0.0000 C   0  0  0  0  0  0  0  0  0  0  0  0
    0.2420   -1.9509    0.0000 C   0  0  0  0  0  0  0  0  0  0  0  0
    1.7017   -0.3161    0.0000 C   0  0  0  0  0  0  0  0  0  0  0  0
    4.7179   -4.5969    0.0000 F   0  0  0  0  0  0  0  0  0  0  0  0
    6.0486   -7.7220    0.0000 O   0  0  0  0  0  0  0  0  0  0  0  0
  2  1  1  0  0  0  0
  2  4  1  0  0  0  0
  2  3  1  6  0  0  0
  3 10  1  0  0  0  0
  4  5  1  0  0  0  0
  6  5  1  0  0  0  0
  6  3  1  6  0  0  0
  6  7  1  0  0  0  0
  8  7  1  0  0  0  0
  8  1  1  0  0  0  0
  8 32  1  6  0  0  0
  9 10  1  0  0  0  0
  9 13  1  0  0  0  0
  9 31  1  0  0  0  0
 10 21  2  0  0  0  0
 11  9  1  0  0  0  0
 12 13  1  0  0  0  0
 13 20  2  0  0  0  0
 14 12  2  0  0  0  0
 14 15  1  0  0  0  0
 14 18  1  0  0  0  0
 15 16  2  0  0  0  0
 17 18  1  0  0  0  0
 18 19  2  0  0  0  0
 20 19  1  0  0  0  0
 22 23  2  0  0  0  0
 22 30  1  0  0  0  0
 23 28  1  0  0  0  0
 23 29  1  0  0  0  0
 24 22  1  0  0  0  0
 25 26  1  0  0  0  0
 26 27  1  0  0  0  0
 27 15  1  0  0  0  0
 28 26  2  0  0  0  0
 30 25  2  0  0  0  0
M  END
> <ID>
SCHEMBL21146487

> <InChIKey>
DJFPOFVJRIRSNV-BJWYYQGGSA-N

> <MW>
450.434

> <Series_Name>
Series_18

$$$$
SCHEMBL21146491
  Mrv1719007181909212D 0   0.00000     0.00000     0

 32 35  0  0  1  0              1 V2000 
    5.3112   -5.8364    0.0000 C   0  0  2  0  0  0  0  0  0  0  0  0
    5.9967   -5.2685    0.0000 N   0  0  0  0  0  0  0  0  0  0  0  0
    6.7365   -5.7842    0.0000 C   0  0  1  0  0  0  0  0  0  0  0  0
    6.2971   -6.4170    0.0000 C   0  0  0  0  0  0  0  0  0  0  0  0
    6.7534   -6.5116    0.0000 C   0  0  0  0  0  0  0  0  0  0  0  0
    6.0257   -6.9004    0.0000 C   0  0  1  0  0  0  0  0  0  0  0  0
    5.7540   -6.4192    0.0000 C   0  0  0  0  0  0  0  0  0  0  0  0
    5.3046   -6.5118    0.0000 C   0  0  0  0  0  0  0  0  0  0  0  0
    5.2657   -4.0208    0.0000 C   0  0  0  0  0  0  0  0  0  0  0  0
    6.0408   -4.5261    0.0000 C   0  0  0  0  0  0  0  0  0  0  0  0
    4.4761   -3.8121    0.0000 F   0  0  0  0  0  0  0  0  0  0  0  0
    3.9390   -1.5686    0.0000 C   0  0  0  0  0  0  0  0  0  0  0  0
    4.5730   -1.9518    0.0000 C   0  0  0  0  0  0  0  0  0  0  0  0
    3.1055   -2.1953    0.0000 N   0  0  0  0  0  0  0  0  0  0  0  0
    3.8336   -0.7067    0.0000 O   0  0  0  0  0  0  0  0  0  0  0  0
    5.3015   -1.5533    0.0000 C   0  0  0  0  0  0  0  0  0  0  0  0
    6.0260   -1.9437    0.0000 C   0  0  0  0  0  0  0  0  0  0  0  0
    6.0340   -2.7816    0.0000 C   0  0  0  0  0  0  0  0  0  0  0  0
    6.8679   -3.2017    0.0000 Cl  0  0  0  0  0  0  0  0  0  0  0  0
    5.2996   -3.1940    0.0000 C   0  0  0  0  0  0  0  0  0  0  0  0
    6.7248   -4.0263    0.0000 O   0  0  0  0  0  0  0  0  0  0  0  0
    4.5869   -2.7702    0.0000 C   0  0  0  0  0  0  0  0  0  0  0  0
    0.9718   -0.7085    0.0000 C   0  0  0  0  0  0  0  0  0  0  0  0
    0.9737   -1.5419    0.0000 C   0  0  0  0  0  0  0  0  0  0  0  0
    0.2356   -0.2998    0.0000 F   0  0  0  0  0  0  0  0  0  0  0  0
    1.6881   -0.3120    0.0000 C   0  0  0  0  0  0  0  0  0  0  0  0
    2.4000   -0.7043    0.0000 C   0  0  0  0  0  0  0  0  0  0  0  0
    2.4114   -1.5404    0.0000 C   0  0  0  0  0  0  0  0  0  0  0  0
    1.6994   -1.9490    0.0000 C   0  0  0  0  0  0  0  0  0  0  0  0
    0.2265   -1.9490    0.0000 C   0  0  0  0  0  0  0  0  0  0  0  0
    4.6902   -4.6046    0.0000 F   0  0  0  0  0  0  0  0  0  0  0  0
    5.9967   -7.7529    0.0000 O   0  0  0  0  0  0  0  0  0  0  0  0
  1  2  1  6  0  0  0
  1  7  1  0  0  0  0
  1  8  1  0  0  0  0
  3  2  1  6  0  0  0
  2 10  1  0  0  0  0
  3  4  1  0  0  0  0
  4  7  1  0  0  0  0
  6  5  1  0  0  0  0
  3  5  1  0  0  0  0
  6  8  1  0  0  0  0
  6 32  1  6  0  0  0
  9 10  1  0  0  0  0
  9 11  1  0  0  0  0
  9 31  1  0  0  0  0
  9 20  1  0  0  0  0
 10 21  2  0  0  0  0
 12 13  1  0  0  0  0
 12 14  1  0  0  0  0
 13 22  2  0  0  0  0
 15 12  2  0  0  0  0
 16 17  2  0  0  0  0
 16 13  1  0  0  0  0
 18 17  1  0  0  0  0
 18 19  1  0  0  0  0
 20 18  2  0  0  0  0
 22 20  1  0  0  0  0
 23 24  2  0  0  0  0
 23 26  1  0  0  0  0
 24 29  1  0  0  0  0
 24 30  1  0  0  0  0
 25 23  1  0  0  0  0
 26 27  2  0  0  0  0
 28 14  1  0  0  0  0
 28 27  1  0  0  0  0
 29 28  2  0  0  0  0
M  END
> <ID>
SCHEMBL21146491

> <InChIKey>
QODJOHJHCSCNAL-BJWYYQGGSA-N

> <MW>
466.89

> <Series_Name>
Series_18

$$$$
SCHEMBL21146503
  Mrv1719007181909222D 0   0.00000     0.00000     0

 39 42  0  0  0  0              1 V2000 
    7.4186   -9.3962    0.0000 C   0  0  0  0  0  0  0  0  0  0  0  0
    6.6824   -8.9809    0.0000 C   0  0  0  0  0  0  0  0  0  0  0  0
    6.7117   -8.1898    0.0000 C   0  0  0  0  0  0  0  0  0  0  0  0
    5.7299   -7.7497    0.0000 N   0  0  0  0  0  0  0  0  0  0  0  0
    7.3788   -7.7497    0.0000 O   0  0  0  0  0  0  0  0  0  0  0  0
    8.1100   -9.0042    0.0000 C   0  0  0  0  0  0  0  0  0  0  0  0
    8.8228   -9.3962    0.0000 C   0  0  0  0  0  0  0  0  0  0  0  0
    8.8009  -10.2231    0.0000 O   0  0  0  0  0  0  0  0  0  0  0  0
    7.4186  -10.2253    0.0000 C   0  0  0  0  0  0  0  0  0  0  0  0
    8.1132  -10.6284    0.0000 C   0  0  0  0  0  0  0  0  0  0  0  0
    5.9359   -5.2558    0.0000 N   0  0  0  0  0  0  0  0  0  0  0  0
    5.2505   -5.6926    0.0000 C   0  0  0  0  0  0  0  0  0  0  0  0
    5.2533   -6.4867    0.0000 C   0  0  0  0  0  0  0  0  0  0  0  0
    5.9753   -6.9086    0.0000 C   0  0  0  0  0  0  0  0  0  0  0  0
    6.6824   -5.6675    0.0000 C   0  0  0  0  0  0  0  0  0  0  0  0
    6.6915   -6.4924    0.0000 C   0  0  0  0  0  0  0  0  0  0  0  0
    5.2588   -4.0204    0.0000 C   0  0  0  0  0  0  0  0  0  0  0  0
    5.9784   -4.5174    0.0000 C   0  0  0  0  0  0  0  0  0  0  0  0
    4.5138   -4.4314    0.0000 F   0  0  0  0  0  0  0  0  0  0  0  0
    4.5138   -3.6070    0.0000 F   0  0  0  0  0  0  0  0  0  0  0  0
    5.2460   -3.1783    0.0000 C   0  0  0  0  0  0  0  0  0  0  0  0
    3.7409   -1.5700    0.0000 C   0  0  0  0  0  0  0  0  0  0  0  0
    4.5470   -1.9437    0.0000 C   0  0  0  0  0  0  0  0  0  0  0  0
    3.7925   -0.7008    0.0000 O   0  0  0  0  0  0  0  0  0  0  0  0
    5.2558   -1.5361    0.0000 C   0  0  0  0  0  0  0  0  0  0  0  0
    5.9630   -1.9333    0.0000 C   0  0  0  0  0  0  0  0  0  0  0  0
    5.9709   -2.7747    0.0000 C   0  0  0  0  0  0  0  0  0  0  0  0
    6.6574   -3.1947    0.0000 F   0  0  0  0  0  0  0  0  0  0  0  0
    6.6574   -3.9986    0.0000 O   0  0  0  0  0  0  0  0  0  0  0  0
    4.5576   -2.7663    0.0000 C   0  0  0  0  0  0  0  0  0  0  0  0
    0.9556   -0.6979    0.0000 C   0  0  0  0  0  0  0  0  0  0  0  0
    0.9589   -1.5330    0.0000 C   0  0  0  0  0  0  0  0  0  0  0  0
    0.2267   -0.2886    0.0000 F   0  0  0  0  0  0  0  0  0  0  0  0
    1.6823   -0.2993    0.0000 C   0  0  0  0  0  0  0  0  0  0  0  0
    2.3989   -0.6944    0.0000 C   0  0  0  0  0  0  0  0  0  0  0  0
    2.4089   -1.5292    0.0000 C   0  0  0  0  0  0  0  0  0  0  0  0
    3.0916   -2.1848    0.0000 N   0  0  0  0  0  0  0  0  0  0  0  0
    1.6846   -1.9211    0.0000 C   0  0  0  0  0  0  0  0  0  0  0  0
    0.2478   -1.9374    0.0000 C   0  0  0  0  0  0  0  0  0  0  0  0
  1  2  1  0  0  0  0
  1  9  1  0  0  0  0
  2  3  1  0  0  0  0
  3  5  2  0  0  0  0
  4  3  1  0  0  0  0
  4 14  1  0  0  0  0
  6  7  1  0  0  0  0
  6  1  1  0  0  0  0
  8  7  1  0  0  0  0
 10  8  1  0  0  0  0
 10  9  1  0  0  0  0
 11 12  1  0  0  0  0
 11 18  1  0  0  0  0
 12 13  1  0  0  0  0
 13 14  1  0  0  0  0
 15 11  1  0  0  0  0
 15 16  1  0  0  0  0
 16 14  1  0  0  0  0
 17 18  1  0  0  0  0
 17 19  1  0  0  0  0
 18 29  2  0  0  0  0
 20 17  1  0  0  0  0
 21 17  1  0  0  0  0
 21 27  1  0  0  0  0
 22 23  1  0  0  0  0
 22 24  2  0  0  0  0
 23 25  2  0  0  0  0
 23 30  1  0  0  0  0
 25 26  1  0  0  0  0
 26 27  2  0  0  0  0
 27 28  1  0  0  0  0
 30 21  2  0  0  0  0
 31 32  2  0  0  0  0
 31 34  1  0  0  0  0
 32 39  1  0  0  0  0
 32 38  1  0  0  0  0
 33 31  1  0  0  0  0
 34 35  2  0  0  0  0
 36 35  1  0  0  0  0
 36 37  1  0  0  0  0
 37 22  1  0  0  0  0
 38 36  2  0  0  0  0
M  END
> <ID>
SCHEMBL21146503

> <InChIKey>
KMRXLZKMDCAXQG-UHFFFAOYSA-N

> <MW>
549.567

> <Series_Name>
Series_18

$$$$
SCHEMBL21146504
  Mrv1719007181909222D 0   0.00000     0.00000     0

 34 36  0  0  0  0              1 V2000 
    6.6960   -8.1047    0.0000 S   0  0  0  0  0  0  0  0  0  0  0  0
    6.7039   -8.9315    0.0000 C   0  0  0  0  0  0  0  0  0  0  0  0
    7.4105   -7.6964    0.0000 O   0  0  0  0  0  0  0  0  0  0  0  0
    6.6756   -7.2880    0.0000 O   0  0  0  0  0  0  0  0  0  0  0  0
    5.9895   -6.8658    0.0000 C   0  0  0  0  0  0  0  0  0  0  0  0
    5.2862   -6.4528    0.0000 C   0  0  0  0  0  0  0  0  0  0  0  0
    5.2792   -5.6364    0.0000 C   0  0  0  0  0  0  0  0  0  0  0  0
    5.9611   -5.2262    0.0000 N   0  0  0  0  0  0  0  0  0  0  0  0
    6.7082   -6.4642    0.0000 C   0  0  0  0  0  0  0  0  0  0  0  0
    6.7088   -5.6382    0.0000 C   0  0  0  0  0  0  0  0  0  0  0  0
    5.7570   -7.6964    0.0000 N   0  0  0  0  0  0  0  0  0  0  0  0
    4.5321   -4.4096    0.0000 F   0  0  0  0  0  0  0  0  0  0  0  0
    5.2495   -3.9822    0.0000 C   0  0  0  0  0  0  0  0  0  0  0  0
    4.5321   -3.5726    0.0000 F   0  0  0  0  0  0  0  0  0  0  0  0
    4.5652   -2.7611    0.0000 C   0  0  0  0  0  0  0  0  0  0  0  0
    5.2817   -3.1604    0.0000 C   0  0  0  0  0  0  0  0  0  0  0  0
    4.5536   -1.9277    0.0000 C   0  0  0  0  0  0  0  0  0  0  0  0
    3.9298   -1.5577    0.0000 C   0  0  0  0  0  0  0  0  0  0  0  0
    3.1031   -2.1742    0.0000 N   0  0  0  0  0  0  0  0  0  0  0  0
    3.8175   -0.6941    0.0000 O   0  0  0  0  0  0  0  0  0  0  0  0
    5.2815   -1.5159    0.0000 C   0  0  0  0  0  0  0  0  0  0  0  0
    5.9964   -1.9259    0.0000 C   0  0  0  0  0  0  0  0  0  0  0  0
    5.9947   -2.7517    0.0000 C   0  0  0  0  0  0  0  0  0  0  0  0
    6.6960   -3.1643    0.0000 F   0  0  0  0  0  0  0  0  0  0  0  0
    5.9293   -4.3475    0.0000 C   0  0  0  0  0  0  0  0  0  0  0  0
    6.6960   -4.0012    0.0000 O   0  0  0  0  0  0  0  0  0  0  0  0
    0.9680   -0.6955    0.0000 C   0  0  0  0  0  0  0  0  0  0  0  0
    0.9726   -1.5229    0.0000 C   0  0  0  0  0  0  0  0  0  0  0  0
    0.2246   -0.2858    0.0000 F   0  0  0  0  0  0  0  0  0  0  0  0
    1.6947   -0.2900    0.0000 C   0  0  0  0  0  0  0  0  0  0  0  0
    2.3878   -0.6864    0.0000 C   0  0  0  0  0  0  0  0  0  0  0  0
    2.4021   -1.5216    0.0000 C   0  0  0  0  0  0  0  0  0  0  0  0
    1.6916   -1.9310    0.0000 C   0  0  0  0  0  0  0  0  0  0  0  0
    0.2281   -1.9393    0.0000 C   0  0  0  0  0  0  0  0  0  0  0  0
  1  2  1  0  0  0  0
  1  3  2  0  0  0  0
  1 11  1  0  0  0  0
  4  1  2  0  0  0  0
  5  6  1  0  0  0  0
  5  9  1  0  0  0  0
  7  8  1  0  0  0  0
  7  6  1  0  0  0  0
  8 25  1  0  0  0  0
 10  8  1  0  0  0  0
 10  9  1  0  0  0  0
 11  5  1  0  0  0  0
 12 13  1  0  0  0  0
 13 14  1  0  0  0  0
 13 25  1  0  0  0  0
 15 16  2  0  0  0  0
 15 17  1  0  0  0  0
 16 13  1  0  0  0  0
 16 23  1  0  0  0  0
 17 21  2  0  0  0  0
 18 17  1  0  0  0  0
 18 19  1  0  0  0  0
 20 18  2  0  0  0  0
 22 21  1  0  0  0  0
 23 22  2  0  0  0  0
 24 23  1  0  0  0  0
 25 26  2  0  0  0  0
 27 28  2  0  0  0  0
 27 30  1  0  0  0  0
 28 34  1  0  0  0  0
 28 33  1  0  0  0  0
 29 27  1  0  0  0  0
 30 31  2  0  0  0  0
 32 19  1  0  0  0  0
 32 31  1  0  0  0  0
 33 32  2  0  0  0  0
M  END
> <ID>
SCHEMBL21146504

> <InChIKey>
KVEYDUSJOIRRDS-UHFFFAOYSA-N

> <MW>
501.5

> <Series_Name>
Series_18

$$$$
SCHEMBL21146505
  Mrv1719007181909222D 0   0.00000     0.00000     0

 30 32  0  0  0  0              1 V2000 
    5.2037   -5.7012    0.0000 C   0  0  0  0  0  0  0  0  0  0  0  0
    5.8754   -5.2965    0.0000 N   0  0  0  0  0  0  0  0  0  0  0  0
    5.2138   -6.5248    0.0000 C   0  0  0  0  0  0  0  0  0  0  0  0
    5.9089   -6.9453    0.0000 C   0  0  0  0  0  0  0  0  0  0  0  0
    6.6079   -6.5385    0.0000 C   0  0  0  0  0  0  0  0  0  0  0  0
    6.6021   -5.7023    0.0000 C   0  0  0  0  0  0  0  0  0  0  0  0
    6.0899   -7.7839    0.0000 N   0  0  0  0  0  0  0  0  0  0  0  0
    5.1839   -4.0330    0.0000 C   0  0  0  0  0  0  0  0  0  0  0  0
    5.9608   -4.5080    0.0000 C   0  0  0  0  0  0  0  0  0  0  0  0
    4.4817   -4.4602    0.0000 F   0  0  0  0  0  0  0  0  0  0  0  0
    4.4817   -3.6240    0.0000 F   0  0  0  0  0  0  0  0  0  0  0  0
    5.2016   -3.2067    0.0000 C   0  0  0  0  0  0  0  0  0  0  0  0
    4.4897   -2.7893    0.0000 C   0  0  0  0  0  0  0  0  0  0  0  0
    4.4912   -1.9645    0.0000 C   0  0  0  0  0  0  0  0  0  0  0  0
    3.7097   -1.5837    0.0000 C   0  0  0  0  0  0  0  0  0  0  0  0
    3.7740   -0.7291    0.0000 O   0  0  0  0  0  0  0  0  0  0  0  0
    5.2135   -1.5490    0.0000 C   0  0  0  0  0  0  0  0  0  0  0  0
    5.9094   -1.9580    0.0000 C   0  0  0  0  0  0  0  0  0  0  0  0
    5.9099   -2.7990    0.0000 C   0  0  0  0  0  0  0  0  0  0  0  0
    6.6045   -3.2166    0.0000 F   0  0  0  0  0  0  0  0  0  0  0  0
    6.6045   -4.0528    0.0000 O   0  0  0  0  0  0  0  0  0  0  0  0
    0.9566   -1.5523    0.0000 C   0  0  0  0  0  0  0  0  0  0  0  0
    0.9585   -0.7125    0.0000 C   0  0  0  0  0  0  0  0  0  0  0  0
    0.2359   -0.3002    0.0000 F   0  0  0  0  0  0  0  0  0  0  0  0
    1.6595   -0.3029    0.0000 C   0  0  0  0  0  0  0  0  0  0  0  0
    2.3715   -0.7128    0.0000 C   0  0  0  0  0  0  0  0  0  0  0  0
    2.3729   -1.5553    0.0000 C   0  0  0  0  0  0  0  0  0  0  0  0
    3.0557   -2.2087    0.0000 N   0  0  0  0  0  0  0  0  0  0  0  0
    1.6700   -1.9645    0.0000 C   0  0  0  0  0  0  0  0  0  0  0  0
    0.2466   -1.9764    0.0000 C   0  0  0  0  0  0  0  0  0  0  0  0
  1  2  1  0  0  0  0
  1  3  1  0  0  0  0
  2  9  1  0  0  0  0
  3  4  1  0  0  0  0
  4  5  1  0  0  0  0
  5  6  1  0  0  0  0
  6  2  1  0  0  0  0
  7  4  1  0  0  0  0
  8  9  1  0  0  0  0
  8 10  1  0  0  0  0
  8 11  1  0  0  0  0
  9 21  2  0  0  0  0
 12  8  1  0  0  0  0
 13 12  2  0  0  0  0
 13 14  1  0  0  0  0
 14 17  2  0  0  0  0
 15 14  1  0  0  0  0
 15 16  2  0  0  0  0
 17 18  1  0  0  0  0
 18 19  2  0  0  0  0
 19 20  1  0  0  0  0
 19 12  1  0  0  0  0
 22 23  2  0  0  0  0
 22 29  1  0  0  0  0
 23 24  1  0  0  0  0
 23 25  1  0  0  0  0
 25 26  2  0  0  0  0
 27 28  1  0  0  0  0
 27 26  1  0  0  0  0
 28 15  1  0  0  0  0
 29 27  2  0  0  0  0
 30 22  1  0  0  0  0
M  END
> <ID>
SCHEMBL21146505

> <InChIKey>
OVUUHCOEKUKWJT-UHFFFAOYSA-N

> <MW>
423.412

> <Series_Name>
Series_18

$$$$
SCHEMBL21146509
  Mrv1719007181909222D 0   0.00000     0.00000     0

 32 35  0  0  1  0              1 V2000 
    5.9736   -6.9170    0.0000 C   0  0  2  0  0  0  0  0  0  0  0  0
    5.2653   -6.4994    0.0000 C   0  0  0  0  0  0  0  0  0  0  0  0
    5.2616   -5.7686    0.0000 C   0  0  2  0  0  0  0  0  0  0  0  0
    5.9540   -5.2617    0.0000 N   0  0  0  0  0  0  0  0  0  0  0  0
    5.6711   -6.3866    0.0000 C   0  0  0  0  0  0  0  0  0  0  0  0
    6.2828   -6.3975    0.0000 C   0  0  0  0  0  0  0  0  0  0  0  0
    6.6380   -5.7886    0.0000 C   0  0  1  0  0  0  0  0  0  0  0  0
    6.1616   -7.7540    0.0000 N   0  0  0  0  0  0  0  0  0  0  0  0
    6.6956   -6.5069    0.0000 C   0  0  0  0  0  0  0  0  0  0  0  0
    5.2068   -4.0135    0.0000 C   0  0  0  0  0  0  0  0  0  0  0  0
    5.9885   -4.4555    0.0000 C   0  0  0  0  0  0  0  0  0  0  0  0
    4.6682   -4.6088    0.0000 F   0  0  0  0  0  0  0  0  0  0  0  0
    4.4506   -3.8176    0.0000 F   0  0  0  0  0  0  0  0  0  0  0  0
    5.2545   -3.1734    0.0000 C   0  0  0  0  0  0  0  0  0  0  0  0
    4.5313   -1.9391    0.0000 C   0  0  0  0  0  0  0  0  0  0  0  0
    4.5458   -2.7664    0.0000 C   0  0  0  0  0  0  0  0  0  0  0  0
    3.7567   -1.5524    0.0000 C   0  0  0  0  0  0  0  0  0  0  0  0
    3.0858   -2.1857    0.0000 N   0  0  0  0  0  0  0  0  0  0  0  0
    3.7979   -0.6923    0.0000 O   0  0  0  0  0  0  0  0  0  0  0  0
    5.2677   -1.5337    0.0000 C   0  0  0  0  0  0  0  0  0  0  0  0
    5.9802   -1.9346    0.0000 C   0  0  0  0  0  0  0  0  0  0  0  0
    5.9753   -2.7721    0.0000 C   0  0  0  0  0  0  0  0  0  0  0  0
    6.6859   -3.1846    0.0000 F   0  0  0  0  0  0  0  0  0  0  0  0
    6.6859   -4.0352    0.0000 O   0  0  0  0  0  0  0  0  0  0  0  0
    0.2176   -0.2967    0.0000 F   0  0  0  0  0  0  0  0  0  0  0  0
    0.9598   -0.6954    0.0000 C   0  0  0  0  0  0  0  0  0  0  0  0
    1.6815   -0.2807    0.0000 C   0  0  0  0  0  0  0  0  0  0  0  0
    2.3749   -0.6903    0.0000 C   0  0  0  0  0  0  0  0  0  0  0  0
    2.3842   -1.5336    0.0000 C   0  0  0  0  0  0  0  0  0  0  0  0
    1.6720   -1.9230    0.0000 C   0  0  0  0  0  0  0  0  0  0  0  0
    0.9658   -1.5249    0.0000 C   0  0  0  0  0  0  0  0  0  0  0  0
    0.2117   -1.9384    0.0000 C   0  0  0  0  0  0  0  0  0  0  0  0
  1  2  1  0  0  0  0
  1  8  1  1  0  0  0
  1  9  1  0  0  0  0
  3  4  1  6  0  0  0
  3  5  1  0  0  0  0
  3  2  1  0  0  0  0
  4 11  1  0  0  0  0
  5  6  1  0  0  0  0
  7  4  1  6  0  0  0
  7  6  1  0  0  0  0
  7  9  1  0  0  0  0
 10 11  1  0  0  0  0
 10 12  1  0  0  0  0
 10 13  1  0  0  0  0
 10 14  1  0  0  0  0
 11 24  2  0  0  0  0
 14 22  2  0  0  0  0
 15 16  2  0  0  0  0
 15 17  1  0  0  0  0
 15 20  1  0  0  0  0
 16 14  1  0  0  0  0
 17 19  2  0  0  0  0
 18 17  1  0  0  0  0
 20 21  2  0  0  0  0
 22 23  1  0  0  0  0
 22 21  1  0  0  0  0
 25 26  1  0  0  0  0
 26 31  2  0  0  0  0
 27 26  1  0  0  0  0
 27 28  2  0  0  0  0
 29 18  1  0  0  0  0
 29 28  1  0  0  0  0
 30 29  2  0  0  0  0
 31 30  1  0  0  0  0
 31 32  1  0  0  0  0
M  END
> <ID>
SCHEMBL21146509

> <InChIKey>
JNECTNOVGWQDME-ACHSLPGTSA-N

> <MW>
449.45

> <Series_Name>
Series_18

$$$$
SCHEMBL21146510
  Mrv1719007181909222D 0   0.00000     0.00000     0

 32 35  0  0  1  0              1 V2000 
    5.1032   -5.3442    0.0000 C   0  0  2  0  0  0  0  0  0  0  0  0
    5.7239   -4.8265    0.0000 C   0  0  0  0  0  0  0  0  0  0  0  0
    6.5455   -5.0093    0.0000 C   0  0  0  0  0  0  0  0  0  0  0  0
    6.0095   -5.6498    0.0000 N   0  0  0  0  0  0  0  0  0  0  0  0
    5.0970   -6.1599    0.0000 C   0  0  0  0  0  0  0  0  0  0  0  0
    5.9405   -6.7225    0.0000 C   0  0  1  0  0  0  0  0  0  0  0  0
    6.7164   -6.5477    0.0000 C   0  0  0  0  0  0  0  0  0  0  0  0
    6.9662   -5.6305    0.0000 C   0  0  1  0  0  0  0  0  0  0  0  0
    5.4276   -7.5330    0.0000 N   0  0  0  0  0  0  0  0  0  0  0  0
    5.2835   -3.9939    0.0000 C   0  0  0  0  0  0  0  0  0  0  0  0
    6.0130   -4.4494    0.0000 C   0  0  0  0  0  0  0  0  0  0  0  0
    4.6764   -4.5706    0.0000 F   0  0  0  0  0  0  0  0  0  0  0  0
    4.4648   -3.7665    0.0000 F   0  0  0  0  0  0  0  0  0  0  0  0
    4.5624   -2.7563    0.0000 C   0  0  0  0  0  0  0  0  0  0  0  0
    5.2824   -3.1694    0.0000 C   0  0  0  0  0  0  0  0  0  0  0  0
    4.5628   -1.9313    0.0000 C   0  0  0  0  0  0  0  0  0  0  0  0
    3.9302   -1.5517    0.0000 C   0  0  0  0  0  0  0  0  0  0  0  0
    3.1106   -2.1690    0.0000 N   0  0  0  0  0  0  0  0  0  0  0  0
    3.8300   -0.6983    0.0000 O   0  0  0  0  0  0  0  0  0  0  0  0
    5.2996   -1.5285    0.0000 C   0  0  0  0  0  0  0  0  0  0  0  0
    5.9949   -1.9222    0.0000 C   0  0  0  0  0  0  0  0  0  0  0  0
    6.0014   -2.7611    0.0000 C   0  0  0  0  0  0  0  0  0  0  0  0
    6.7078   -3.1740    0.0000 F   0  0  0  0  0  0  0  0  0  0  0  0
    6.7078   -3.9993    0.0000 O   0  0  0  0  0  0  0  0  0  0  0  0
    0.2328   -0.2962    0.0000 F   0  0  0  0  0  0  0  0  0  0  0  0
    0.9848   -0.7010    0.0000 C   0  0  0  0  0  0  0  0  0  0  0  0
    1.7048   -0.3002    0.0000 C   0  0  0  0  0  0  0  0  0  0  0  0
    2.4202   -0.6966    0.0000 C   0  0  0  0  0  0  0  0  0  0  0  0
    2.4231   -1.5248    0.0000 C   0  0  0  0  0  0  0  0  0  0  0  0
    1.7138   -1.9137    0.0000 C   0  0  0  0  0  0  0  0  0  0  0  0
    0.9855   -1.5249    0.0000 C   0  0  0  0  0  0  0  0  0  0  0  0
    0.2719   -1.9254    0.0000 C   0  0  0  0  0  0  0  0  0  0  0  0
  1  2  1  0  0  0  0
  1  4  1  1  0  0  0
  1  5  1  0  0  0  0
  2  3  1  0  0  0  0
  8  3  1  0  0  0  0
  4 11  1  0  0  0  0
  6  5  1  0  0  0  0
  6  9  1  1  0  0  0
  6  7  1  0  0  0  0
  8  7  1  0  0  0  0
  8  4  1  1  0  0  0
 10 11  1  0  0  0  0
 10 12  1  0  0  0  0
 10 15  1  0  0  0  0
 11 24  2  0  0  0  0
 13 10  1  0  0  0  0
 14 15  1  0  0  0  0
 14 16  2  0  0  0  0
 15 22  2  0  0  0  0
 16 20  1  0  0  0  0
 17 16  1  0  0  0  0
 17 18  1  0  0  0  0
 19 17  2  0  0  0  0
 20 21  2  0  0  0  0
 22 23  1  0  0  0  0
 22 21  1  0  0  0  0
 25 26  1  0  0  0  0
 26 31  2  0  0  0  0
 27 26  1  0  0  0  0
 27 28  2  0  0  0  0
 29 28  1  0  0  0  0
 29 18  1  0  0  0  0
 30 29  2  0  0  0  0
 31 30  1  0  0  0  0
 31 32  1  0  0  0  0
M  END
> <ID>
SCHEMBL21146510

> <InChIKey>
JNECTNOVGWQDME-XGBSXSJOSA-N

> <MW>
449.45

> <Series_Name>
Series_18

$$$$
SCHEMBL21146512
  Mrv1719007181909222D 0   0.00000     0.00000     0

 37 39  0  0  0  0              1 V2000 
    6.0103   -6.9008    0.0000 C   0  0  0  0  0  0  0  0  0  0  0  0
    5.2812   -6.4869    0.0000 C   0  0  0  0  0  0  0  0  0  0  0  0
    5.2912   -5.6717    0.0000 C   0  0  0  0  0  0  0  0  0  0  0  0
    5.9800   -5.2537    0.0000 N   0  0  0  0  0  0  0  0  0  0  0  0
    6.7314   -6.4881    0.0000 C   0  0  0  0  0  0  0  0  0  0  0  0
    6.7314   -5.6631    0.0000 C   0  0  0  0  0  0  0  0  0  0  0  0
    6.3617   -7.3234    0.0000 N   0  0  0  0  0  0  0  0  0  0  0  0
    6.9034   -7.2304    0.0000 C   0  0  0  0  0  0  0  0  0  0  0  0
    7.2548   -7.6530    0.0000 O   0  0  0  0  0  0  0  0  0  0  0  0
    7.0937   -6.7149    0.0000 O   0  0  0  0  0  0  0  0  0  0  0  0
    7.6353   -6.6218    0.0000 C   0  0  0  0  0  0  0  0  0  0  0  0
    8.0579   -6.2704    0.0000 C   0  0  0  0  0  0  0  0  0  0  0  0
    7.5424   -6.0801    0.0000 C   0  0  0  0  0  0  0  0  0  0  0  0
    7.9867   -7.0444    0.0000 C   0  0  0  0  0  0  0  0  0  0  0  0
    5.2810   -4.0055    0.0000 C   0  0  0  0  0  0  0  0  0  0  0  0
    6.0221   -4.4690    0.0000 C   0  0  0  0  0  0  0  0  0  0  0  0
    4.5490   -4.4208    0.0000 F   0  0  0  0  0  0  0  0  0  0  0  0
    4.5490   -3.6093    0.0000 F   0  0  0  0  0  0  0  0  0  0  0  0
    4.5850   -2.7816    0.0000 C   0  0  0  0  0  0  0  0  0  0  0  0
    5.2881   -3.1875    0.0000 C   0  0  0  0  0  0  0  0  0  0  0  0
    3.9160   -1.5564    0.0000 C   0  0  0  0  0  0  0  0  0  0  0  0
    4.5789   -1.9443    0.0000 C   0  0  0  0  0  0  0  0  0  0  0  0
    3.0967   -2.1891    0.0000 N   0  0  0  0  0  0  0  0  0  0  0  0
    3.8229   -0.7048    0.0000 O   0  0  0  0  0  0  0  0  0  0  0  0
    5.2975   -1.5430    0.0000 C   0  0  0  0  0  0  0  0  0  0  0  0
    6.0093   -1.9383    0.0000 C   0  0  0  0  0  0  0  0  0  0  0  0
    6.0166   -2.7737    0.0000 C   0  0  0  0  0  0  0  0  0  0  0  0
    6.7061   -3.1821    0.0000 F   0  0  0  0  0  0  0  0  0  0  0  0
    6.7061   -4.0151    0.0000 O   0  0  0  0  0  0  0  0  0  0  0  0
    0.9696   -0.7066    0.0000 C   0  0  0  0  0  0  0  0  0  0  0  0
    0.9710   -1.5376    0.0000 C   0  0  0  0  0  0  0  0  0  0  0  0
    0.2349   -0.2989    0.0000 F   0  0  0  0  0  0  0  0  0  0  0  0
    1.7015   -0.3030    0.0000 C   0  0  0  0  0  0  0  0  0  0  0  0
    2.3933   -0.7022    0.0000 C   0  0  0  0  0  0  0  0  0  0  0  0
    2.3936   -1.5372    0.0000 C   0  0  0  0  0  0  0  0  0  0  0  0
    1.7014   -1.9296    0.0000 C   0  0  0  0  0  0  0  0  0  0  0  0
    0.2259   -1.9434    0.0000 C   0  0  0  0  0  0  0  0  0  0  0  0
  1  2  1  0  0  0  0
  1  5  1  0  0  0  0
  2  3  1  0  0  0  0
  3  4  1  0  0  0  0
  4 16  1  0  0  0  0
  6  4  1  0  0  0  0
  6  5  1  0  0  0  0
  7  8  1  0  0  0  0
  7  1  1  0  0  0  0
  8  9  2  0  0  0  0
  8 10  1  0  0  0  0
 10 11  1  0  0  0  0
 11 12  1  0  0  0  0
 11 13  1  0  0  0  0
 11 14  1  0  0  0  0
 15 16  1  0  0  0  0
 15 17  1  0  0  0  0
 16 29  2  0  0  0  0
 18 15  1  0  0  0  0
 19 20  2  0  0  0  0
 19 22  1  0  0  0  0
 20 15  1  0  0  0  0
 21 22  1  0  0  0  0
 21 23  1  0  0  0  0
 22 25  2  0  0  0  0
 24 21  2  0  0  0  0
 25 26  1  0  0  0  0
 26 27  2  0  0  0  0
 27 28  1  0  0  0  0
 27 20  1  0  0  0  0
 30 31  2  0  0  0  0
 30 33  1  0  0  0  0
 31 36  1  0  0  0  0
 31 37  1  0  0  0  0
 32 30  1  0  0  0  0
 33 34  2  0  0  0  0
 35 23  1  0  0  0  0
 35 34  1  0  0  0  0
 36 35  2  0  0  0  0
M  END
> <ID>
SCHEMBL21146512

> <InChIKey>
UVXWBQYZQZYRIR-UHFFFAOYSA-N

> <MW>
523.529

> <Series_Name>
Series_18

$$$$
SCHEMBL21146513
  Mrv1719007181909222D 0   0.00000     0.00000     0

 39 42  0  0  1  0              1 V2000 
    8.1255   -8.2025    0.0000 C   0  0  0  0  0  0  0  0  0  0  0  0
    7.3435   -7.8012    0.0000 O   0  0  0  0  0  0  0  0  0  0  0  0
    8.8166   -7.7903    0.0000 C   0  0  0  0  0  0  0  0  0  0  0  0
    8.6374   -8.7566    0.0000 C   0  0  0  0  0  0  0  0  0  0  0  0
    8.0803   -9.0182    0.0000 C   0  0  0  0  0  0  0  0  0  0  0  0
    5.7105   -7.7804    0.0000 N   0  0  0  0  0  0  0  0  0  0  0  0
    6.5980   -8.1705    0.0000 C   0  0  0  0  0  0  0  0  0  0  0  0
    6.6362   -9.0493    0.0000 O   0  0  0  0  0  0  0  0  0  0  0  0
    5.9378   -6.9458    0.0000 C   0  0  1  0  0  0  0  0  0  0  0  0
    5.2359   -6.5360    0.0000 C   0  0  0  0  0  0  0  0  0  0  0  0
    5.2420   -5.8564    0.0000 C   0  0  2  0  0  0  0  0  0  0  0  0
    5.9289   -5.2840    0.0000 N   0  0  0  0  0  0  0  0  0  0  0  0
    6.6409   -5.8148    0.0000 C   0  0  2  0  0  0  0  0  0  0  0  0
    6.6544   -6.5366    0.0000 C   0  0  0  0  0  0  0  0  0  0  0  0
    6.2209   -6.4438    0.0000 C   0  0  0  0  0  0  0  0  0  0  0  0
    5.6799   -6.4438    0.0000 C   0  0  0  0  0  0  0  0  0  0  0  0
    5.1982   -4.0304    0.0000 C   0  0  0  0  0  0  0  0  0  0  0  0
    4.4103   -3.8278    0.0000 F   0  0  0  0  0  0  0  0  0  0  0  0
    4.5273   -2.7921    0.0000 C   0  0  0  0  0  0  0  0  0  0  0  0
    5.2222   -3.2031    0.0000 C   0  0  0  0  0  0  0  0  0  0  0  0
    4.5157   -1.9531    0.0000 C   0  0  0  0  0  0  0  0  0  0  0  0
    3.8847   -1.5671    0.0000 C   0  0  0  0  0  0  0  0  0  0  0  0
    3.0581   -2.1947    0.0000 N   0  0  0  0  0  0  0  0  0  0  0  0
    3.7861   -0.7073    0.0000 O   0  0  0  0  0  0  0  0  0  0  0  0
    5.2363   -1.5503    0.0000 C   0  0  0  0  0  0  0  0  0  0  0  0
    5.9575   -1.9500    0.0000 C   0  0  0  0  0  0  0  0  0  0  0  0
    5.9675   -2.7899    0.0000 C   0  0  0  0  0  0  0  0  0  0  0  0
    6.6362   -3.2036    0.0000 F   0  0  0  0  0  0  0  0  0  0  0  0
    5.9203   -4.4342    0.0000 C   0  0  0  0  0  0  0  0  0  0  0  0
    0.9442   -1.5431    0.0000 C   0  0  0  0  0  0  0  0  0  0  0  0
    0.9465   -0.6977    0.0000 C   0  0  0  0  0  0  0  0  0  0  0  0
    0.2288   -0.2913    0.0000 F   0  0  0  0  0  0  0  0  0  0  0  0
    1.6825   -0.3023    0.0000 C   0  0  0  0  0  0  0  0  0  0  0  0
    2.3835   -1.5388    0.0000 C   0  0  0  0  0  0  0  0  0  0  0  0
    1.6809   -1.9539    0.0000 C   0  0  0  0  0  0  0  0  0  0  0  0
    0.2350   -1.9669    0.0000 C   0  0  0  0  0  0  0  0  0  0  0  0
    2.3686   -0.6998    0.0000 C   0  0  0  0  0  0  0  0  0  0  0  0
    4.6391   -4.6391    0.0000 F   0  0  0  0  0  0  0  0  0  0  0  0
    6.6362   -4.0358    0.0000 O   0  0  0  0  0  0  0  0  0  0  0  0
  1  2  1  0  0  0  0
  1  4  1  0  0  0  0
  2  7  1  0  0  0  0
  3  1  1  0  0  0  0
  5  1  1  0  0  0  0
  6  7  1  0  0  0  0
  7  8  2  0  0  0  0
  9 10  1  0  0  0  0
  9  6  1  1  0  0  0
  9 14  1  0  0  0  0
 11 12  1  6  0  0  0
 11 16  1  0  0  0  0
 11 10  1  0  0  0  0
 12 29  1  0  0  0  0
 13 12  1  6  0  0  0
 13 15  1  0  0  0  0
 13 14  1  0  0  0  0
 15 16  1  0  0  0  0
 17 18  1  0  0  0  0
 17 29  1  0  0  0  0
 17 38  1  0  0  0  0
 17 20  1  0  0  0  0
 19 20  1  0  0  0  0
 20 27  2  0  0  0  0
 21 19  2  0  0  0  0
 21 25  1  0  0  0  0
 22 21  1  0  0  0  0
 22 23  1  0  0  0  0
 24 22  2  0  0  0  0
 25 26  2  0  0  0  0
 27 26  1  0  0  0  0
 27 28  1  0  0  0  0
 29 39  2  0  0  0  0
 30 31  2  0  0  0  0
 30 35  1  0  0  0  0
 31 32  1  0  0  0  0
 31 33  1  0  0  0  0
 33 37  2  0  0  0  0
 34 23  1  0  0  0  0
 35 34  2  0  0  0  0
 36 30  1  0  0  0  0
 37 34  1  0  0  0  0
M  END
> <ID>
SCHEMBL21146513

> <InChIKey>
KTUCBVRYNXWXFP-ACDBMABISA-N

> <MW>
549.567

> <Series_Name>
Series_18

$$$$
SCHEMBL21146518
  Mrv1719007181909222D 0   0.00000     0.00000     0

 37 40  0  0  1  0              1 V2000 
    5.2403   -9.0429    0.0000 O   0  0  0  0  0  0  0  0  0  0  0  0
    4.5120   -9.4561    0.0000 C   0  0  0  0  0  0  0  0  0  0  0  0
    4.5215   -7.8131    0.0000 O   0  0  0  0  0  0  0  0  0  0  0  0
    5.2867   -8.1658    0.0000 C   0  0  0  0  0  0  0  0  0  0  0  0
    5.9403   -7.7942    0.0000 N   0  0  0  0  0  0  0  0  0  0  0  0
    5.2510   -6.5447    0.0000 C   0  0  0  0  0  0  0  0  0  0  0  0
    5.2924   -5.7669    0.0000 C   0  0  2  0  0  0  0  0  0  0  0  0
    5.9403   -5.3160    0.0000 N   0  0  0  0  0  0  0  0  0  0  0  0
    5.6393   -6.4345    0.0000 C   0  0  0  0  0  0  0  0  0  0  0  0
    5.9593   -5.9403    0.0000 O   0  0  0  0  0  0  0  0  0  0  0  0
    5.9684   -6.9517    0.0000 C   0  0  2  0  0  0  0  0  0  0  0  0
    6.2714   -6.4088    0.0000 C   0  0  0  0  0  0  0  0  0  0  0  0
    6.6851   -5.7471    0.0000 C   0  0  1  0  0  0  0  0  0  0  0  0
    6.6852   -6.5651    0.0000 C   0  0  0  0  0  0  0  0  0  0  0  0
    5.2787   -4.0345    0.0000 C   0  0  0  0  0  0  0  0  0  0  0  0
    5.9152   -4.3874    0.0000 C   0  0  0  0  0  0  0  0  0  0  0  0
    4.8241   -4.7295    0.0000 F   0  0  0  0  0  0  0  0  0  0  0  0
    4.4079   -4.0107    0.0000 F   0  0  0  0  0  0  0  0  0  0  0  0
    4.5333   -2.7688    0.0000 C   0  0  0  0  0  0  0  0  0  0  0  0
    5.2495   -3.1912    0.0000 C   0  0  0  0  0  0  0  0  0  0  0  0
    4.5282   -1.9361    0.0000 C   0  0  0  0  0  0  0  0  0  0  0  0
    3.7319   -1.5646    0.0000 C   0  0  0  0  0  0  0  0  0  0  0  0
    3.8025   -0.7000    0.0000 O   0  0  0  0  0  0  0  0  0  0  0  0
    5.2386   -1.5420    0.0000 C   0  0  0  0  0  0  0  0  0  0  0  0
    5.9463   -1.9261    0.0000 C   0  0  0  0  0  0  0  0  0  0  0  0
    5.9490   -2.7680    0.0000 C   0  0  0  0  0  0  0  0  0  0  0  0
    6.6592   -3.1783    0.0000 F   0  0  0  0  0  0  0  0  0  0  0  0
    6.6592   -4.0107    0.0000 O   0  0  0  0  0  0  0  0  0  0  0  0
    0.9555   -0.6902    0.0000 C   0  0  0  0  0  0  0  0  0  0  0  0
    0.9592   -1.5253    0.0000 C   0  0  0  0  0  0  0  0  0  0  0  0
    0.2270   -0.2837    0.0000 F   0  0  0  0  0  0  0  0  0  0  0  0
    1.6797   -0.2853    0.0000 C   0  0  0  0  0  0  0  0  0  0  0  0
    2.3802   -0.6922    0.0000 C   0  0  0  0  0  0  0  0  0  0  0  0
    2.3907   -1.5229    0.0000 C   0  0  0  0  0  0  0  0  0  0  0  0
    3.0837   -2.1850    0.0000 N   0  0  0  0  0  0  0  0  0  0  0  0
    0.2364   -1.9519    0.0000 C   0  0  0  0  0  0  0  0  0  0  0  0
    1.6740   -1.9321    0.0000 C   0  0  0  0  0  0  0  0  0  0  0  0
  1  2  1  0  0  0  0
  3  4  2  0  0  0  0
  4  5  1  0  0  0  0
  4  1  1  0  0  0  0
 11  6  1  0  0  0  0
  7  6  1  0  0  0  0
  7  8  1  6  0  0  0
  7  9  1  0  0  0  0
 13  8  1  6  0  0  0
  8 16  1  0  0  0  0
  9 10  1  0  0  0  0
 10 12  1  0  0  0  0
 11  5  1  6  0  0  0
 13 12  1  0  0  0  0
 13 14  1  0  0  0  0
 11 14  1  0  0  0  0
 15 16  1  0  0  0  0
 15 17  1  0  0  0  0
 15 20  1  0  0  0  0
 16 28  2  0  0  0  0
 18 15  1  0  0  0  0
 19 20  1  0  0  0  0
 20 26  2  0  0  0  0
 21 19  2  0  0  0  0
 21 22  1  0  0  0  0
 21 24  1  0  0  0  0
 22 23  2  0  0  0  0
 24 25  2  0  0  0  0
 26 27  1  0  0  0  0
 26 25  1  0  0  0  0
 29 30  1  0  0  0  0
 29 32  2  0  0  0  0
 30 37  2  0  0  0  0
 31 29  1  0  0  0  0
 32 33  1  0  0  0  0
 33 34  2  0  0  0  0
 34 35  1  0  0  0  0
 35 22  1  0  0  0  0
 36 30  1  0  0  0  0
 37 34  1  0  0  0  0
M  END
> <ID>
SCHEMBL21146518

> <InChIKey>
OCASMJLLLHNMJW-BCDXTJNWSA-N

> <MW>
523.485

> <Series_Name>
Series_18

$$$$
SCHEMBL21146532
  Mrv1719007181909242D 0   0.00000     0.00000     0

 31 33  0  0  0  0              1 V2000 
    0.1380   -0.2116    0.0000 F   0  0  0  0  0  0  0  0  0  0  0  0
    3.6895   -0.6256    0.0000 O   0  0  0  0  0  0  0  0  0  0  0  0
    0.1288   -1.8402    0.0000 C   0  0  0  0  0  0  0  0  0  0  0  0
    6.6521   -3.1099    0.0000 Cl  0  0  0  0  0  0  0  0  0  0  0  0
    4.2967   -3.9287    0.0000 F   0  0  0  0  0  0  0  0  0  0  0  0
    4.7108   -4.6464    0.0000 F   0  0  0  0  0  0  0  0  0  0  0  0
    6.5418   -3.9287    0.0000 O   0  0  0  0  0  0  0  0  0  0  0  0
    6.0265   -7.6551    0.0000 O   0  0  0  0  0  0  0  0  0  0  0  0
    7.4618   -6.8362    0.0000 O   0  0  0  0  0  0  0  0  0  0  0  0
    2.2634   -1.4231    0.0000 C   0  0  0  0  0  0  0  0  0  0  0  0
    2.2634   -0.6073    0.0000 C   0  0  0  0  0  0  0  0  0  0  0  0
    1.5641   -0.1840    0.0000 C   0  0  0  0  0  0  0  0  0  0  0  0
    0.8219   -0.5950    0.0000 C   0  0  0  0  0  0  0  0  0  0  0  0
    0.8281   -1.4231    0.0000 C   0  0  0  0  0  0  0  0  0  0  0  0
    3.6190   -1.4476    0.0000 C   0  0  0  0  0  0  0  0  0  0  0  0
    1.5825   -1.8217    0.0000 C   0  0  0  0  0  0  0  0  0  0  0  0
    4.3980   -1.8340    0.0000 C   0  0  0  0  0  0  0  0  0  0  0  0
    5.8333   -2.6559    0.0000 C   0  0  0  0  0  0  0  0  0  0  0  0
    5.8333   -1.8402    0.0000 C   0  0  0  0  0  0  0  0  0  0  0  0
    5.1892   -1.4537    0.0000 C   0  0  0  0  0  0  0  0  0  0  0  0
    4.3980   -2.6498    0.0000 C   0  0  0  0  0  0  0  0  0  0  0  0
    5.1095   -3.0792    0.0000 C   0  0  0  0  0  0  0  0  0  0  0  0
    5.1018   -3.9057    0.0000 C   0  0  0  0  0  0  0  0  0  0  0  0
    5.8456   -4.3795    0.0000 C   0  0  0  0  0  0  0  0  0  0  0  0
    5.1156   -5.5756    0.0000 C   0  0  0  0  0  0  0  0  0  0  0  0
    5.1156   -6.3853    0.0000 C   0  0  0  0  0  0  0  0  0  0  0  0
    5.8210   -6.8024    0.0000 C   0  0  0  0  0  0  0  0  0  0  0  0
    6.5509   -6.3914    0.0000 C   0  0  0  0  0  0  0  0  0  0  0  0
    6.5509   -5.5756    0.0000 C   0  0  0  0  0  0  0  0  0  0  0  0
    5.8333   -5.1708    0.0000 N   0  0  0  0  0  0  0  0  0  0  0  0
    2.9943   -1.8393    0.0000 N   0  0  0  0  0  0  0  0  0  0  0  0
 10 11  2  0  0  0  0
 11 12  1  0  0  0  0
 12 13  2  0  0  0  0
  1 13  1  0  0  0  0
 13 14  1  0  0  0  0
  3 14  1  0  0  0  0
  2 15  2  0  0  0  0
 10 16  1  0  0  0  0
 14 16  2  0  0  0  0
 15 17  1  0  0  0  0
  4 18  1  0  0  0  0
 18 19  1  0  0  0  0
 19 20  2  0  0  0  0
 17 20  1  0  0  0  0
 17 21  2  0  0  0  0
 21 22  1  0  0  0  0
 18 22  2  0  0  0  0
 22 23  1  0  0  0  0
  5 23  1  0  0  0  0
  6 23  1  0  0  0  0
 23 24  1  0  0  0  0
  7 24  2  0  0  0  0
 25 26  1  0  0  0  0
 26 27  1  0  0  0  0
  8 27  1  0  0  0  0
 27 28  1  0  0  0  0
  9 28  1  0  0  0  0
 28 29  1  0  0  0  0
 24 30  1  0  0  0  0
 25 30  1  0  0  0  0
 29 30  1  0  0  0  0
 10 31  1  0  0  0  0
 15 31  1  0  0  0  0
M  END
> <ID>
SCHEMBL21146532

> <InChIKey>
LHSRQFMTEGSVOC-UHFFFAOYSA-N

> <MW>
456.85

> <Series_Name>
Series_18

$$$$
SCHEMBL21146535
  Mrv1719007181909242D 0   0.00000     0.00000     0

 31 33  0  0  1  0              1 V2000 
    5.8916   -6.8616    0.0000 C   0  0  1  0  0  0  0  0  0  0  0  0
    5.1777   -6.4437    0.0000 C   0  0  0  0  0  0  0  0  0  0  0  0
    5.8645   -5.2069    0.0000 N   0  0  0  0  0  0  0  0  0  0  0  0
    5.1908   -5.6226    0.0000 C   0  0  0  0  0  0  0  0  0  0  0  0
    6.6133   -6.4517    0.0000 C   0  0  1  0  0  0  0  0  0  0  0  0
    6.6029   -5.6268    0.0000 C   0  0  0  0  0  0  0  0  0  0  0  0
    7.4996   -6.8693    0.0000 O   0  0  0  0  0  0  0  0  0  0  0  0
    6.0746   -7.6915    0.0000 O   0  0  0  0  0  0  0  0  0  0  0  0
    5.1746   -3.9883    0.0000 C   0  0  0  0  0  0  0  0  0  0  0  0
    5.9020   -4.4448    0.0000 C   0  0  0  0  0  0  0  0  0  0  0  0
    4.7500   -4.6953    0.0000 F   0  0  0  0  0  0  0  0  0  0  0  0
    4.3481   -3.9827    0.0000 F   0  0  0  0  0  0  0  0  0  0  0  0
    5.1805   -3.1499    0.0000 C   0  0  0  0  0  0  0  0  0  0  0  0
    4.4692   -2.7450    0.0000 C   0  0  0  0  0  0  0  0  0  0  0  0
    4.4617   -1.9180    0.0000 C   0  0  0  0  0  0  0  0  0  0  0  0
    3.8187   -1.5370    0.0000 C   0  0  0  0  0  0  0  0  0  0  0  0
    3.0327   -2.1650    0.0000 N   0  0  0  0  0  0  0  0  0  0  0  0
    3.7452   -0.6943    0.0000 O   0  0  0  0  0  0  0  0  0  0  0  0
    5.1820   -1.5164    0.0000 C   0  0  0  0  0  0  0  0  0  0  0  0
    5.8896   -1.9182    0.0000 C   0  0  0  0  0  0  0  0  0  0  0  0
    5.8958   -2.7467    0.0000 C   0  0  0  0  0  0  0  0  0  0  0  0
    6.7266   -3.1652    0.0000 Cl  0  0  0  0  0  0  0  0  0  0  0  0
    6.5770   -3.9827    0.0000 O   0  0  0  0  0  0  0  0  0  0  0  0
    0.9184   -1.5180    0.0000 C   0  0  0  0  0  0  0  0  0  0  0  0
    0.9205   -0.6917    0.0000 C   0  0  0  0  0  0  0  0  0  0  0  0
    0.2193   -0.2923    0.0000 F   0  0  0  0  0  0  0  0  0  0  0  0
    2.3487   -1.5138    0.0000 C   0  0  0  0  0  0  0  0  0  0  0  0
    1.6437   -1.9274    0.0000 C   0  0  0  0  0  0  0  0  0  0  0  0
    0.2183   -1.9336    0.0000 C   0  0  0  0  0  0  0  0  0  0  0  0
    2.3362   -0.6909    0.0000 C   0  0  0  0  0  0  0  0  0  0  0  0
    1.6443   -0.2838    0.0000 C   0  0  0  0  0  0  0  0  0  0  0  0
  1  2  1  0  0  0  0
  1  5  1  0  0  0  0
  1  8  1  1  0  0  0
  3  4  1  0  0  0  0
  3 10  1  0  0  0  0
  4  2  1  0  0  0  0
  5  7  1  1  0  0  0
  6  3  1  0  0  0  0
  5  6  1  0  0  0  0
  9 10  1  0  0  0  0
  9 11  1  0  0  0  0
  9 13  1  0  0  0  0
 10 23  2  0  0  0  0
 12  9  1  0  0  0  0
 13 21  2  0  0  0  0
 14 13  1  0  0  0  0
 15 14  2  0  0  0  0
 15 19  1  0  0  0  0
 16 15  1  0  0  0  0
 16 17  1  0  0  0  0
 18 16  2  0  0  0  0
 19 20  2  0  0  0  0
 21 20  1  0  0  0  0
 21 22  1  0  0  0  0
 24 25  1  0  0  0  0
 24 28  2  0  0  0  0
 25 31  2  0  0  0  0
 26 25  1  0  0  0  0
 27 17  1  0  0  0  0
 27 28  1  0  0  0  0
 29 24  1  0  0  0  0
 30 27  2  0  0  0  0
 31 30  1  0  0  0  0
M  END
> <ID>
SCHEMBL21146535

> <InChIKey>
LHSRQFMTEGSVOC-ZWKOTPCHSA-N

> <MW>
456.85

> <Series_Name>
Series_18

$$$$
SCHEMBL21146537
  Mrv1719007181909242D 0   0.00000     0.00000     0

 31 33  0  0  0  0              1 V2000 
    6.4173   -7.3576    0.0000 C   0  0  0  0  0  0  0  0  0  0  0  0
    5.7065   -6.9324    0.0000 C   0  0  0  0  0  0  0  0  0  0  0  0
    5.6834   -6.1136    0.0000 C   0  0  0  0  0  0  0  0  0  0  0  0
    6.3775   -5.7011    0.0000 N   0  0  0  0  0  0  0  0  0  0  0  0
    7.1251   -6.9457    0.0000 C   0  0  0  0  0  0  0  0  0  0  0  0
    7.1180   -6.1133    0.0000 C   0  0  0  0  0  0  0  0  0  0  0  0
    6.6094   -8.1941    0.0000 O   0  0  0  0  0  0  0  0  0  0  0  0
    5.6969   -4.4653    0.0000 C   0  0  0  0  0  0  0  0  0  0  0  0
    6.4075   -4.9278    0.0000 C   0  0  0  0  0  0  0  0  0  0  0  0
    5.2566   -5.1794    0.0000 F   0  0  0  0  0  0  0  0  0  0  0  0
    4.8507   -4.4643    0.0000 F   0  0  0  0  0  0  0  0  0  0  0  0
    5.6886   -3.6194    0.0000 C   0  0  0  0  0  0  0  0  0  0  0  0
    4.9788   -3.2147    0.0000 C   0  0  0  0  0  0  0  0  0  0  0  0
    4.9744   -2.3821    0.0000 C   0  0  0  0  0  0  0  0  0  0  0  0
    4.3207   -1.9900    0.0000 C   0  0  0  0  0  0  0  0  0  0  0  0
    3.5173   -2.6186    0.0000 N   0  0  0  0  0  0  0  0  0  0  0  0
    4.2324   -1.1402    0.0000 O   0  0  0  0  0  0  0  0  0  0  0  0
    5.6864   -1.9809    0.0000 C   0  0  0  0  0  0  0  0  0  0  0  0
    6.4041   -2.3765    0.0000 C   0  0  0  0  0  0  0  0  0  0  0  0
    6.4112   -3.2112    0.0000 C   0  0  0  0  0  0  0  0  0  0  0  0
    7.1119   -3.6333    0.0000 F   0  0  0  0  0  0  0  0  0  0  0  0
    7.0732   -4.4643    0.0000 O   0  0  0  0  0  0  0  0  0  0  0  0
    0.8767   -2.2217    0.0000 C   0  0  0  0  0  0  0  0  0  0  0  0
    0.3553   -2.4546    0.0000 N   0  0  0  0  0  0  0  0  0  0  0  0
    1.3981   -1.9888    0.0000 C   0  0  0  0  0  0  0  0  0  0  0  0
    1.3677   -1.1514    0.0000 C   0  0  0  0  0  0  0  0  0  0  0  0
    0.6571   -0.7537    0.0000 F   0  0  0  0  0  0  0  0  0  0  0  0
    2.1037   -0.7402    0.0000 C   0  0  0  0  0  0  0  0  0  0  0  0
    2.8338   -1.9847    0.0000 C   0  0  0  0  0  0  0  0  0  0  0  0
    2.1128   -2.3857    0.0000 C   0  0  0  0  0  0  0  0  0  0  0  0
    2.8044   -1.1683    0.0000 C   0  0  0  0  0  0  0  0  0  0  0  0
  1  2  1  0  0  0  0
  1  5  1  0  0  0  0
  2  3  1  0  0  0  0
  3  4  1  0  0  0  0
  4  6  1  0  0  0  0
  4  9  1  0  0  0  0
  5  6  1  0  0  0  0
  7  1  1  0  0  0  0
  8  9  1  0  0  0  0
  8 10  1  0  0  0  0
  8 12  1  0  0  0  0
  9 22  2  0  0  0  0
 11  8  1  0  0  0  0
 12 20  2  0  0  0  0
 13 12  1  0  0  0  0
 14 13  2  0  0  0  0
 14 18  1  0  0  0  0
 15 14  1  0  0  0  0
 15 16  1  0  0  0  0
 17 15  2  0  0  0  0
 18 19  2  0  0  0  0
 20 19  1  0  0  0  0
 20 21  1  0  0  0  0
 23 24  3  0  0  0  0
 23 25  1  0  0  0  0
 25 30  2  0  0  0  0
 26 25  1  0  0  0  0
 26 28  2  0  0  0  0
 27 26  1  0  0  0  0
 28 31  1  0  0  0  0
 29 16  1  0  0  0  0
 30 29  1  0  0  0  0
 31 29  2  0  0  0  0
M  END
> <ID>
SCHEMBL21146537

> <InChIKey>
JRSVNEQDCFUZSS-UHFFFAOYSA-N

> <MW>
435.379

> <Series_Name>
Series_18

$$$$
SCHEMBL21146538
  Mrv1719007181909242D 0   0.00000     0.00000     0

 30 32  0  0  0  0              1 V2000 
    6.0178   -6.7829    0.0000 C   0  0  0  0  0  0  0  0  0  0  0  0
    5.2891   -6.3808    0.0000 C   0  0  0  0  0  0  0  0  0  0  0  0
    5.2818   -5.5575    0.0000 C   0  0  0  0  0  0  0  0  0  0  0  0
    5.9740   -5.1494    0.0000 N   0  0  0  0  0  0  0  0  0  0  0  0
    6.7189   -5.5579    0.0000 C   0  0  0  0  0  0  0  0  0  0  0  0
    6.7139   -6.3981    0.0000 C   0  0  0  0  0  0  0  0  0  0  0  0
    6.2122   -7.6049    0.0000 O   0  0  0  0  0  0  0  0  0  0  0  0
    5.2857   -3.9354    0.0000 C   0  0  0  0  0  0  0  0  0  0  0  0
    6.0088   -4.3826    0.0000 C   0  0  0  0  0  0  0  0  0  0  0  0
    4.8562   -4.6363    0.0000 F   0  0  0  0  0  0  0  0  0  0  0  0
    4.4347   -3.9216    0.0000 F   0  0  0  0  0  0  0  0  0  0  0  0
    4.5520   -2.6946    0.0000 C   0  0  0  0  0  0  0  0  0  0  0  0
    5.2908   -3.1095    0.0000 C   0  0  0  0  0  0  0  0  0  0  0  0
    4.5457   -1.8861    0.0000 C   0  0  0  0  0  0  0  0  0  0  0  0
    3.7495   -1.5124    0.0000 C   0  0  0  0  0  0  0  0  0  0  0  0
    3.0969   -2.1257    0.0000 N   0  0  0  0  0  0  0  0  0  0  0  0
    3.8116   -0.6597    0.0000 O   0  0  0  0  0  0  0  0  0  0  0  0
    5.2410   -0.6597    0.0000 F   0  0  0  0  0  0  0  0  0  0  0  0
    5.2671   -1.4835    0.0000 C   0  0  0  0  0  0  0  0  0  0  0  0
    5.9992   -1.8833    0.0000 C   0  0  0  0  0  0  0  0  0  0  0  0
    6.0036   -2.7062    0.0000 C   0  0  0  0  0  0  0  0  0  0  0  0
    6.7070   -3.9216    0.0000 O   0  0  0  0  0  0  0  0  0  0  0  0
    0.2199   -0.2749    0.0000 F   0  0  0  0  0  0  0  0  0  0  0  0
    0.9628   -0.6839    0.0000 C   0  0  0  0  0  0  0  0  0  0  0  0
    1.6783   -0.2783    0.0000 C   0  0  0  0  0  0  0  0  0  0  0  0
    2.3891   -0.6581    0.0000 C   0  0  0  0  0  0  0  0  0  0  0  0
    2.3961   -1.4831    0.0000 C   0  0  0  0  0  0  0  0  0  0  0  0
    1.6995   -1.9048    0.0000 C   0  0  0  0  0  0  0  0  0  0  0  0
    0.9618   -1.5012    0.0000 C   0  0  0  0  0  0  0  0  0  0  0  0
    0.2631   -1.9044    0.0000 C   0  0  0  0  0  0  0  0  0  0  0  0
  1  2  1  0  0  0  0
  2  3  1  0  0  0  0
  3  4  1  0  0  0  0
  4  9  1  0  0  0  0
  5  4  1  0  0  0  0
  5  6  1  0  0  0  0
  6  1  1  0  0  0  0
  7  1  1  0  0  0  0
  8  9  1  0  0  0  0
  8 10  1  0  0  0  0
  8 13  1  0  0  0  0
  9 22  2  0  0  0  0
 11  8  1  0  0  0  0
 12 13  1  0  0  0  0
 13 21  2  0  0  0  0
 14 12  2  0  0  0  0
 14 15  1  0  0  0  0
 14 19  1  0  0  0  0
 15 17  2  0  0  0  0
 16 15  1  0  0  0  0
 18 19  1  0  0  0  0
 19 20  2  0  0  0  0
 21 20  1  0  0  0  0
 23 24  1  0  0  0  0
 24 25  2  0  0  0  0
 24 29  1  0  0  0  0
 25 26  1  0  0  0  0
 26 27  2  0  0  0  0
 27 16  1  0  0  0  0
 28 27  1  0  0  0  0
 29 28  2  0  0  0  0
 30 29  1  0  0  0  0
M  END
> <ID>
SCHEMBL21146538

> <InChIKey>
KGQZWAGGISJHSZ-UHFFFAOYSA-N

> <MW>
424.396

> <Series_Name>
Series_18

$$$$
SCHEMBL21146541
  Mrv1719007181909242D 0   0.00000     0.00000     0

 31 33  0  0  0  0              1 V2000 
   27.7010   -6.4336    0.0000 C   0  0  0  0  0  0  0  0  0  0  0  0
   27.6958   -5.6132    0.0000 C   0  0  0  0  0  0  0  0  0  0  0  0
   28.3910   -5.2023    0.0000 N   0  0  0  0  0  0  0  0  0  0  0  0
   28.4165   -6.8444    0.0000 C   0  0  0  0  0  0  0  0  0  0  0  0
   29.1174   -5.6040    0.0000 C   0  0  0  0  0  0  0  0  0  0  0  0
   29.1249   -6.4371    0.0000 C   0  0  0  0  0  0  0  0  0  0  0  0
   28.6217   -7.6743    0.0000 O   0  0  0  0  0  0  0  0  0  0  0  0
   27.6763   -3.9904    0.0000 C   0  0  0  0  0  0  0  0  0  0  0  0
   28.4111   -4.4736    0.0000 C   0  0  0  0  0  0  0  0  0  0  0  0
   27.2658   -4.6857    0.0000 F   0  0  0  0  0  0  0  0  0  0  0  0
   26.8415   -3.9663    0.0000 F   0  0  0  0  0  0  0  0  0  0  0  0
   27.6812   -3.1402    0.0000 C   0  0  0  0  0  0  0  0  0  0  0  0
   26.2766   -1.5460    0.0000 C   0  0  0  0  0  0  0  0  0  0  0  0
   26.9882   -1.9158    0.0000 C   0  0  0  0  0  0  0  0  0  0  0  0
   25.5132   -2.1768    0.0000 N   0  0  0  0  0  0  0  0  0  0  0  0
   27.6532   -0.6826    0.0000 O   0  0  0  0  0  0  0  0  0  0  0  0
   27.6612   -1.5178    0.0000 C   0  0  0  0  0  0  0  0  0  0  0  0
   28.4048   -1.9050    0.0000 C   0  0  0  0  0  0  0  0  0  0  0  0
   28.4036   -2.7439    0.0000 C   0  0  0  0  0  0  0  0  0  0  0  0
   29.1105   -3.9663    0.0000 O   0  0  0  0  0  0  0  0  0  0  0  0
   26.9914   -2.7346    0.0000 C   0  0  0  0  0  0  0  0  0  0  0  0
   22.6538   -0.2952    0.0000 F   0  0  0  0  0  0  0  0  0  0  0  0
   23.3906   -0.7000    0.0000 C   0  0  0  0  0  0  0  0  0  0  0  0
   24.0843   -0.3110    0.0000 C   0  0  0  0  0  0  0  0  0  0  0  0
   24.7910   -0.6915    0.0000 C   0  0  0  0  0  0  0  0  0  0  0  0
   24.8125   -1.5287    0.0000 C   0  0  0  0  0  0  0  0  0  0  0  0
   23.3846   -1.5272    0.0000 C   0  0  0  0  0  0  0  0  0  0  0  0
   24.1074   -1.9267    0.0000 C   0  0  0  0  0  0  0  0  0  0  0  0
   22.6446   -1.9347    0.0000 C   0  0  0  0  0  0  0  0  0  0  0  0
   28.3951   -0.2553    0.0000 C   0  0  0  0  0  0  0  0  0  0  0  0
   26.2327   -0.7010    0.0000 O   0  0  0  0  0  0  0  0  0  0  0  0
  1  2  1  0  0  0  0
  1  4  1  0  0  0  0
  2  3  1  0  0  0  0
  3  5  1  0  0  0  0
  3  9  1  0  0  0  0
  5  6  1  0  0  0  0
  6  4  1  0  0  0  0
  7  4  1  0  0  0  0
  8  9  1  0  0  0  0
  8 12  1  0  0  0  0
  9 20  2  0  0  0  0
 10  8  1  0  0  0  0
 11  8  1  0  0  0  0
 12 19  2  0  0  0  0
 13 14  1  0  0  0  0
 13 15  1  0  0  0  0
 14 21  2  0  0  0  0
 16 17  1  0  0  0  0
 16 30  1  0  0  0  0
 17 18  2  0  0  0  0
 17 14  1  0  0  0  0
 19 18  1  0  0  0  0
 21 12  1  0  0  0  0
 22 23  1  0  0  0  0
 23 24  2  0  0  0  0
 24 25  1  0  0  0  0
 25 26  2  0  0  0  0
 26 15  1  0  0  0  0
 26 28  1  0  0  0  0
 27 28  2  0  0  0  0
 27 23  1  0  0  0  0
 29 27  1  0  0  0  0
 31 13  2  0  0  0  0
M  END
> <ID>
SCHEMBL21146541

> <InChIKey>
YVTNJFSRNVVFPO-UHFFFAOYSA-N

> <MW>
436.431

> <Series_Name>
Series_18

$$$$
SCHEMBL21146554
  Mrv1719007181909272D 0   0.00000     0.00000     0

 37 40  0  0  1  0              1 V2000 
    5.2435   -8.1968    0.0000 S   0  0  0  0  0  0  0  0  0  0  0  0
    6.1677   -7.7950    0.0000 N   0  0  0  0  0  0  0  0  0  0  0  0
    5.2762   -6.5358    0.0000 C   0  0  0  0  0  0  0  0  0  0  0  0
    5.2838   -5.7639    0.0000 C   0  0  2  0  0  0  0  0  0  0  0  0
    5.9467   -5.2838    0.0000 N   0  0  0  0  0  0  0  0  0  0  0  0
    5.6382   -6.4318    0.0000 C   0  0  0  0  0  0  0  0  0  0  0  0
    5.9668   -5.9065    0.0000 O   0  0  0  0  0  0  0  0  0  0  0  0
    5.9772   -6.9306    0.0000 C   0  0  2  0  0  0  0  0  0  0  0  0
    6.6881   -6.5379    0.0000 C   0  0  0  0  0  0  0  0  0  0  0  0
    6.6842   -5.7638    0.0000 C   0  0  2  0  0  0  0  0  0  0  0  0
    6.3260   -6.4370    0.0000 C   0  0  0  0  0  0  0  0  0  0  0  0
    5.2357   -4.0016    0.0000 C   0  0  0  0  0  0  0  0  0  0  0  0
    5.9577   -4.4590    0.0000 C   0  0  0  0  0  0  0  0  0  0  0  0
    4.8217   -4.7212    0.0000 F   0  0  0  0  0  0  0  0  0  0  0  0
    4.3998   -3.9980    0.0000 F   0  0  0  0  0  0  0  0  0  0  0  0
    4.5055   -1.9093    0.0000 C   0  0  0  0  0  0  0  0  0  0  0  0
    4.5320   -2.7297    0.0000 C   0  0  0  0  0  0  0  0  0  0  0  0
    3.8774   -1.5464    0.0000 C   0  0  0  0  0  0  0  0  0  0  0  0
    3.0638   -2.1798    0.0000 N   0  0  0  0  0  0  0  0  0  0  0  0
    3.7769   -0.6831    0.0000 O   0  0  0  0  0  0  0  0  0  0  0  0
    5.2237   -1.4919    0.0000 C   0  0  0  0  0  0  0  0  0  0  0  0
    5.9274   -1.9022    0.0000 C   0  0  0  0  0  0  0  0  0  0  0  0
    5.9609   -2.7275    0.0000 C   0  0  0  0  0  0  0  0  0  0  0  0
    6.6499   -3.1542    0.0000 F   0  0  0  0  0  0  0  0  0  0  0  0
    5.2373   -3.1576    0.0000 C   0  0  0  0  0  0  0  0  0  0  0  0
    6.6499   -3.9980    0.0000 O   0  0  0  0  0  0  0  0  0  0  0  0
    0.9539   -0.6825    0.0000 C   0  0  0  0  0  0  0  0  0  0  0  0
    0.9553   -1.5206    0.0000 C   0  0  0  0  0  0  0  0  0  0  0  0
    0.2210   -0.3014    0.0000 F   0  0  0  0  0  0  0  0  0  0  0  0
    1.6688   -0.2657    0.0000 C   0  0  0  0  0  0  0  0  0  0  0  0
    2.3784   -0.6810    0.0000 C   0  0  0  0  0  0  0  0  0  0  0  0
    2.3812   -1.5192    0.0000 C   0  0  0  0  0  0  0  0  0  0  0  0
    1.6645   -1.9287    0.0000 C   0  0  0  0  0  0  0  0  0  0  0  0
    0.2263   -1.9488    0.0000 C   0  0  0  0  0  0  0  0  0  0  0  0
    5.6902   -8.9201    0.0000 C   0  0  0  0  0  0  0  0  0  0  0  0
    4.5404   -8.5986    0.0000 O   0  0  0  0  0  0  0  0  0  0  0  0
    4.8417   -7.4736    0.0000 O   0  0  0  0  0  0  0  0  0  0  0  0
  1  2  1  0  0  0  0
  1 35  1  0  0  0  0
  4  3  1  0  0  0  0
  4  5  1  6  0  0  0
  4  6  1  0  0  0  0
  5 13  1  0  0  0  0
  6  7  1  0  0  0  0
  8  9  1  0  0  0  0
  8  3  1  0  0  0  0
  8  2  1  6  0  0  0
 10  9  1  0  0  0  0
 10 11  1  0  0  0  0
 10  5  1  6  0  0  0
 11  7  1  0  0  0  0
 12 13  1  0  0  0  0
 12 14  1  0  0  0  0
 12 25  1  0  0  0  0
 13 26  2  0  0  0  0
 15 12  1  0  0  0  0
 16 17  2  0  0  0  0
 16 21  1  0  0  0  0
 17 25  1  0  0  0  0
 18 16  1  0  0  0  0
 18 19  1  0  0  0  0
 20 18  2  0  0  0  0
 21 22  2  0  0  0  0
 23 24  1  0  0  0  0
 23 22  1  0  0  0  0
 25 23  2  0  0  0  0
 27 28  1  0  0  0  0
 27 30  2  0  0  0  0
 28 33  2  0  0  0  0
 29 27  1  0  0  0  0
 30 31  1  0  0  0  0
 31 32  2  0  0  0  0
 32 19  1  0  0  0  0
 33 32  1  0  0  0  0
 34 28  1  0  0  0  0
 36  1  2  0  0  0  0
 37  1  2  0  0  0  0
M  END
> <ID>
SCHEMBL21146554

> <InChIKey>
KYBKNTVNRVYDEH-BCDXTJNWSA-N

> <MW>
543.53

> <Series_Name>
Series_18

$$$$
SCHEMBL21146556
  Mrv1719007181909272D 0   0.00000     0.00000     0

 36 39  0  0  1  0              1 V2000 
    5.8184   -7.7912    0.0000 N   0  0  0  0  0  0  0  0  0  0  0  0
    6.7815   -8.2177    0.0000 C   0  0  0  0  0  0  0  0  0  0  0  0
    7.4708   -7.7712    0.0000 O   0  0  0  0  0  0  0  0  0  0  0  0
    6.7802   -9.0130    0.0000 C   0  0  0  0  0  0  0  0  0  0  0  0
    5.3439   -5.8159    0.0000 C   0  0  2  0  0  0  0  0  0  0  0  0
    6.0086   -5.2876    0.0000 N   0  0  0  0  0  0  0  0  0  0  0  0
    6.0050   -5.8064    0.0000 C   0  0  0  0  0  0  0  0  0  0  0  0
    6.3922   -6.4075    0.0000 C   0  0  0  0  0  0  0  0  0  0  0  0
    6.7441   -5.6645    0.0000 C   0  0  1  0  0  0  0  0  0  0  0  0
    6.7636   -6.5056    0.0000 C   0  0  0  0  0  0  0  0  0  0  0  0
    6.0394   -6.9297    0.0000 C   0  0  1  0  0  0  0  0  0  0  0  0
    5.6954   -6.4251    0.0000 C   0  0  0  0  0  0  0  0  0  0  0  0
    5.3218   -6.5215    0.0000 C   0  0  0  0  0  0  0  0  0  0  0  0
    5.2937   -4.0324    0.0000 C   0  0  0  0  0  0  0  0  0  0  0  0
    4.8670   -4.7669    0.0000 F   0  0  0  0  0  0  0  0  0  0  0  0
    4.4664   -4.0458    0.0000 F   0  0  0  0  0  0  0  0  0  0  0  0
    5.2966   -3.1926    0.0000 C   0  0  0  0  0  0  0  0  0  0  0  0
    3.8480   -1.5396    0.0000 C   0  0  0  0  0  0  0  0  0  0  0  0
    4.5593   -1.9410    0.0000 C   0  0  0  0  0  0  0  0  0  0  0  0
    3.1145   -2.2032    0.0000 N   0  0  0  0  0  0  0  0  0  0  0  0
    5.2885   -1.5268    0.0000 C   0  0  0  0  0  0  0  0  0  0  0  0
    5.9743   -1.9289    0.0000 C   0  0  0  0  0  0  0  0  0  0  0  0
    6.0217   -2.7820    0.0000 C   0  0  0  0  0  0  0  0  0  0  0  0
    6.7297   -3.1846    0.0000 F   0  0  0  0  0  0  0  0  0  0  0  0
    5.9691   -4.3949    0.0000 C   0  0  0  0  0  0  0  0  0  0  0  0
    6.7297   -4.0258    0.0000 O   0  0  0  0  0  0  0  0  0  0  0  0
    4.5891   -2.7682    0.0000 C   0  0  0  0  0  0  0  0  0  0  0  0
    0.9508   -0.7148    0.0000 C   0  0  0  0  0  0  0  0  0  0  0  0
    0.9559   -1.5542    0.0000 C   0  0  0  0  0  0  0  0  0  0  0  0
    0.2203   -0.3004    0.0000 F   0  0  0  0  0  0  0  0  0  0  0  0
    1.6751   -0.3216    0.0000 C   0  0  0  0  0  0  0  0  0  0  0  0
    2.3897   -0.7019    0.0000 C   0  0  0  0  0  0  0  0  0  0  0  0
    2.3978   -1.5533    0.0000 C   0  0  0  0  0  0  0  0  0  0  0  0
    1.6849   -1.9629    0.0000 C   0  0  0  0  0  0  0  0  0  0  0  0
    0.2604   -1.9584    0.0000 C   0  0  0  0  0  0  0  0  0  0  0  0
    3.8255   -0.7010    0.0000 O   0  0  0  0  0  0  0  0  0  0  0  0
  1  2  1  0  0  0  0
  2  3  2  0  0  0  0
  4  2  1  0  0  0  0
  5  6  1  6  0  0  0
  5 12  1  0  0  0  0
  5 13  1  0  0  0  0
  9  6  1  6  0  0  0
  6 25  1  0  0  0  0
  7  8  1  0  0  0  0
  7 12  1  0  0  0  0
  9  8  1  0  0  0  0
  9 10  1  0  0  0  0
 11 10  1  0  0  0  0
 11  1  1  6  0  0  0
 11 13  1  0  0  0  0
 14 15  1  0  0  0  0
 14 17  1  0  0  0  0
 14 25  1  0  0  0  0
 16 14  1  0  0  0  0
 17 23  2  0  0  0  0
 18 19  1  0  0  0  0
 18 20  1  0  0  0  0
 19 27  2  0  0  0  0
 21 19  1  0  0  0  0
 21 22  2  0  0  0  0
 22 23  1  0  0  0  0
 23 24  1  0  0  0  0
 25 26  2  0  0  0  0
 27 17  1  0  0  0  0
 28 29  2  0  0  0  0
 28 31  1  0  0  0  0
 29 34  1  0  0  0  0
 29 35  1  0  0  0  0
 30 28  1  0  0  0  0
 31 32  2  0  0  0  0
 33 20  1  0  0  0  0
 33 32  1  0  0  0  0
 34 33  2  0  0  0  0
 36 18  2  0  0  0  0
M  END
> <ID>
SCHEMBL21146556

> <InChIKey>
VCGUKFQPOQJGMF-OWZKRDHZSA-N

> <MW>
505.514

> <Series_Name>
Series_18

$$$$
SCHEMBL21146660
  Mrv1719007181911032D 0   0.00000     0.00000     0

 32 35  0  0  1  0              1 V2000 
    5.5671   -6.5967    0.0000 C   0  0  0  0  0  0  0  0  0  0  0  0
    5.5648   -5.7552    0.0000 C   0  0  2  0  0  0  0  0  0  0  0  0
    6.2528   -5.3433    0.0000 N   0  0  0  0  0  0  0  0  0  0  0  0
    5.9725   -6.4497    0.0000 C   0  0  0  0  0  0  0  0  0  0  0  0
    6.9739   -5.8075    0.0000 C   0  0  1  0  0  0  0  0  0  0  0  0
    6.5464   -6.4611    0.0000 C   0  0  0  0  0  0  0  0  0  0  0  0
    6.9826   -6.5920    0.0000 C   0  0  0  0  0  0  0  0  0  0  0  0
    6.2662   -7.0108    0.0000 C   0  0  1  0  0  0  0  0  0  0  0  0
    6.4612   -7.8633    0.0000 O   0  0  0  0  0  0  0  0  0  0  0  0
    5.5311   -4.0982    0.0000 C   0  0  0  0  0  0  0  0  0  0  0  0
    6.2728   -4.5896    0.0000 C   0  0  0  0  0  0  0  0  0  0  0  0
    5.1348   -4.8127    0.0000 F   0  0  0  0  0  0  0  0  0  0  0  0
    4.7180   -4.0738    0.0000 F   0  0  0  0  0  0  0  0  0  0  0  0
    4.8494   -2.8077    0.0000 C   0  0  0  0  0  0  0  0  0  0  0  0
    5.5630   -3.2294    0.0000 C   0  0  0  0  0  0  0  0  0  0  0  0
    4.0513   -1.5915    0.0000 C   0  0  0  0  0  0  0  0  0  0  0  0
    4.8429   -1.9714    0.0000 C   0  0  0  0  0  0  0  0  0  0  0  0
    3.3917   -2.2169    0.0000 N   0  0  0  0  0  0  0  0  0  0  0  0
    4.1117   -0.7200    0.0000 O   0  0  0  0  0  0  0  0  0  0  0  0
    6.2650   -2.8137    0.0000 C   0  0  0  0  0  0  0  0  0  0  0  0
    6.9728   -3.2400    0.0000 F   0  0  0  0  0  0  0  0  0  0  0  0
    6.9728   -4.0738    0.0000 O   0  0  0  0  0  0  0  0  0  0  0  0
    6.2504   -1.9655    0.0000 C   0  0  0  0  0  0  0  0  0  0  0  0
    5.5534   -1.5666    0.0000 C   0  0  0  0  0  0  0  0  0  0  0  0
    0.4204   -1.9895    0.0000 Cl  0  0  0  0  0  0  0  0  0  0  0  0
    1.2765   -1.5493    0.0000 C   0  0  0  0  0  0  0  0  0  0  0  0
    1.2770   -0.7100    0.0000 C   0  0  0  0  0  0  0  0  0  0  0  0
    0.5494   -0.2842    0.0000 F   0  0  0  0  0  0  0  0  0  0  0  0
    1.9892   -0.2937    0.0000 C   0  0  0  0  0  0  0  0  0  0  0  0
    2.6965   -0.6992    0.0000 C   0  0  0  0  0  0  0  0  0  0  0  0
    2.7014   -1.5518    0.0000 C   0  0  0  0  0  0  0  0  0  0  0  0
    1.9898   -1.9603    0.0000 C   0  0  0  0  0  0  0  0  0  0  0  0
  8  1  1  0  0  0  0
  2  1  1  0  0  0  0
  2  3  1  6  0  0  0
  2  4  1  0  0  0  0
  3 11  1  0  0  0  0
  5  6  1  0  0  0  0
  5  3  1  6  0  0  0
  5  7  1  0  0  0  0
  6  4  1  0  0  0  0
  8  9  1  1  0  0  0
  8  7  1  0  0  0  0
 10 11  1  0  0  0  0
 10 15  1  0  0  0  0
 11 22  2  0  0  0  0
 12 10  1  0  0  0  0
 13 10  1  0  0  0  0
 14 15  1  0  0  0  0
 15 20  2  0  0  0  0
 16 17  1  0  0  0  0
 16 19  2  0  0  0  0
 17 14  2  0  0  0  0
 18 16  1  0  0  0  0
 20 21  1  0  0  0  0
 23 20  1  0  0  0  0
 24 23  2  0  0  0  0
 24 17  1  0  0  0  0
 25 26  1  0  0  0  0
 26 32  2  0  0  0  0
 27 26  1  0  0  0  0
 27 29  2  0  0  0  0
 28 27  1  0  0  0  0
 29 30  1  0  0  0  0
 30 31  2  0  0  0  0
 31 18  1  0  0  0  0
 32 31  1  0  0  0  0
M  END
> <ID>
SCHEMBL21146660

> <InChIKey>
RBPHVJATULQGSN-FICVDOATSA-N

> <MW>
470.85

> <Series_Name>
Series_18

$$$$
SCHEMBL21146681
  Mrv1719007181911072D 0   0.00000     0.00000     0

 31 33  0  0  1  0              1 V2000 
   12.5127  -14.0305    0.0000 C   0  0  0  0  0  0  0  0  0  0  0  0
   13.1829  -13.6170    0.0000 N   0  0  0  0  0  0  0  0  0  0  0  0
   12.5161  -14.8504    0.0000 C   0  0  0  0  0  0  0  0  0  0  0  0
   13.2065  -15.2550    0.0000 C   0  0  2  0  0  0  0  0  0  0  0  0
   13.9096  -14.0150    0.0000 C   0  0  0  0  0  0  0  0  0  0  0  0
   13.9140  -14.8463    0.0000 C   0  0  2  0  0  0  0  0  0  0  0  0
   12.5061  -12.3661    0.0000 C   0  0  0  0  0  0  0  0  0  0  0  0
   12.0799  -13.0925    0.0000 F   0  0  0  0  0  0  0  0  0  0  0  0
   11.6639  -12.3691    0.0000 F   0  0  0  0  0  0  0  0  0  0  0  0
   11.8074  -11.1231    0.0000 C   0  0  0  0  0  0  0  0  0  0  0  0
   12.5065  -11.5411    0.0000 C   0  0  0  0  0  0  0  0  0  0  0  0
   11.1553   -9.9149    0.0000 C   0  0  0  0  0  0  0  0  0  0  0  0
   11.8003  -10.2929    0.0000 C   0  0  0  0  0  0  0  0  0  0  0  0
   10.3619  -10.5427    0.0000 N   0  0  0  0  0  0  0  0  0  0  0  0
   11.0852   -9.0779    0.0000 O   0  0  0  0  0  0  0  0  0  0  0  0
   12.5099   -9.9057    0.0000 C   0  0  0  0  0  0  0  0  0  0  0  0
   13.2114  -10.2954    0.0000 C   0  0  0  0  0  0  0  0  0  0  0  0
   13.2120  -11.1298    0.0000 C   0  0  0  0  0  0  0  0  0  0  0  0
   14.0544  -11.5554    0.0000 Cl  0  0  0  0  0  0  0  0  0  0  0  0
   13.1511  -12.7377    0.0000 C   0  0  0  0  0  0  0  0  0  0  0  0
   13.9063  -12.3691    0.0000 O   0  0  0  0  0  0  0  0  0  0  0  0
    8.2587   -9.8920    0.0000 C   0  0  0  0  0  0  0  0  0  0  0  0
    8.2472   -9.0587    0.0000 C   0  0  0  0  0  0  0  0  0  0  0  0
    7.5409   -8.6439    0.0000 F   0  0  0  0  0  0  0  0  0  0  0  0
    8.9789   -8.6486    0.0000 C   0  0  0  0  0  0  0  0  0  0  0  0
    9.6815   -9.0567    0.0000 C   0  0  0  0  0  0  0  0  0  0  0  0
    9.6806   -9.8939    0.0000 C   0  0  0  0  0  0  0  0  0  0  0  0
    8.9725  -10.3074    0.0000 C   0  0  0  0  0  0  0  0  0  0  0  0
    7.5152  -10.3076    0.0000 C   0  0  0  0  0  0  0  0  0  0  0  0
   13.4089  -16.0944    0.0000 O   0  0  0  0  0  0  0  0  0  0  0  0
   14.8195  -15.2806    0.0000 O   0  0  0  0  0  0  0  0  0  0  0  0
  1  2  1  0  0  0  0
  1  3  1  0  0  0  0
  2 20  1  0  0  0  0
  4  3  1  0  0  0  0
  4 30  1  6  0  0  0
  5  2  1  0  0  0  0
  6  5  1  0  0  0  0
  4  6  1  0  0  0  0
  6 31  1  6  0  0  0
  7  8  1  0  0  0  0
  7 11  1  0  0  0  0
  7 20  1  0  0  0  0
  9  7  1  0  0  0  0
 10 11  1  0  0  0  0
 11 18  2  0  0  0  0
 12 13  1  0  0  0  0
 12 14  1  0  0  0  0
 13 10  2  0  0  0  0
 14 27  1  0  0  0  0
 15 12  2  0  0  0  0
 16 13  1  0  0  0  0
 16 17  2  0  0  0  0
 18 19  1  0  0  0  0
 18 17  1  0  0  0  0
 20 21  2  0  0  0  0
 22 23  1  0  0  0  0
 22 28  2  0  0  0  0
 23 25  2  0  0  0  0
 24 23  1  0  0  0  0
 25 26  1  0  0  0  0
 27 26  2  0  0  0  0
 28 27  1  0  0  0  0
 29 22  1  0  0  0  0
M  END
> <ID>
SCHEMBL21146681

> <InChIKey>
LHSRQFMTEGSVOC-MSOLQXFVSA-N

> <MW>
456.85

> <Series_Name>
Series_18

$$$$
SCHEMBL21146684
  Mrv1719007181911092D 0   0.00000     0.00000     0

 34 37  0  0  1  0              1 V2000 
    5.9792   -6.9320    0.0000 C   0  0  2  0  0  0  0  0  0  0  0  0
    5.2546   -6.5170    0.0000 C   0  0  0  0  0  0  0  0  0  0  0  0
    5.2903   -5.7767    0.0000 C   0  0  2  0  0  0  0  0  0  0  0  0
    5.9489   -5.2690    0.0000 N   0  0  0  0  0  0  0  0  0  0  0  0
    5.6831   -6.2960    0.0000 C   0  0  1  0  0  0  0  0  0  0  0  0
    5.9477   -5.7863    0.0000 C   0  0  0  0  0  0  0  0  0  0  0  0
    6.3035   -6.4062    0.0000 C   0  0  0  0  0  0  0  0  0  0  0  0
    6.6755   -5.7337    0.0000 C   0  0  1  0  0  0  0  0  0  0  0  0
    6.1507   -7.7548    0.0000 N   0  0  0  0  0  0  0  0  0  0  0  0
    5.6455   -6.5332    0.0000 C   0  0  0  0  0  0  0  0  0  0  0  0
    6.6815   -6.5216    0.0000 C   0  0  0  0  0  0  0  0  0  0  0  0
    5.2609   -4.0316    0.0000 C   0  0  0  0  0  0  0  0  0  0  0  0
    5.9821   -4.4994    0.0000 C   0  0  0  0  0  0  0  0  0  0  0  0
    4.8229   -4.7379    0.0000 F   0  0  0  0  0  0  0  0  0  0  0  0
    4.4192   -4.0368    0.0000 F   0  0  0  0  0  0  0  0  0  0  0  0
    4.5307   -2.7601    0.0000 C   0  0  0  0  0  0  0  0  0  0  0  0
    5.2634   -3.1917    0.0000 C   0  0  0  0  0  0  0  0  0  0  0  0
    4.5328   -1.9513    0.0000 C   0  0  0  0  0  0  0  0  0  0  0  0
    3.8635   -1.5535    0.0000 C   0  0  0  0  0  0  0  0  0  0  0  0
    3.0807   -2.1884    0.0000 N   0  0  0  0  0  0  0  0  0  0  0  0
    3.8031   -0.7011    0.0000 O   0  0  0  0  0  0  0  0  0  0  0  0
    5.2678   -1.5354    0.0000 C   0  0  0  0  0  0  0  0  0  0  0  0
    5.9715   -1.9522    0.0000 C   0  0  0  0  0  0  0  0  0  0  0  0
    5.9790   -2.7811    0.0000 C   0  0  0  0  0  0  0  0  0  0  0  0
    6.6713   -3.1869    0.0000 F   0  0  0  0  0  0  0  0  0  0  0  0
    6.6713   -4.0368    0.0000 O   0  0  0  0  0  0  0  0  0  0  0  0
    0.9695   -0.7007    0.0000 C   0  0  0  0  0  0  0  0  0  0  0  0
    0.9705   -1.5430    0.0000 C   0  0  0  0  0  0  0  0  0  0  0  0
    0.2337   -0.2975    0.0000 F   0  0  0  0  0  0  0  0  0  0  0  0
    1.6926   -0.3139    0.0000 C   0  0  0  0  0  0  0  0  0  0  0  0
    2.4154   -0.7070    0.0000 C   0  0  0  0  0  0  0  0  0  0  0  0
    2.4079   -1.5431    0.0000 C   0  0  0  0  0  0  0  0  0  0  0  0
    1.6900   -1.9533    0.0000 C   0  0  0  0  0  0  0  0  0  0  0  0
    0.2389   -1.9546    0.0000 C   0  0  0  0  0  0  0  0  0  0  0  0
  1  2  1  0  0  0  0
  1  9  1  1  0  0  0
  1 11  1  0  0  0  0
  3  2  1  0  0  0  0
  3  4  1  6  0  0  0
  3  5  1  0  0  0  0
  4 13  1  0  0  0  0
  5  6  1  0  0  0  0
  5 10  1  1  0  0  0
  6  7  1  0  0  0  0
  8  4  1  6  0  0  0
  8  7  1  0  0  0  0
  8 11  1  0  0  0  0
 12 13  1  0  0  0  0
 12 14  1  0  0  0  0
 12 17  1  0  0  0  0
 13 26  2  0  0  0  0
 15 12  1  0  0  0  0
 16 17  1  0  0  0  0
 16 18  2  0  0  0  0
 17 24  2  0  0  0  0
 18 22  1  0  0  0  0
 19 18  1  0  0  0  0
 19 20  1  0  0  0  0
 21 19  2  0  0  0  0
 22 23  2  0  0  0  0
 24 25  1  0  0  0  0
 24 23  1  0  0  0  0
 27 28  2  0  0  0  0
 27 30  1  0  0  0  0
 28 33  1  0  0  0  0
 28 34  1  0  0  0  0
 29 27  1  0  0  0  0
 30 31  2  0  0  0  0
 32 31  1  0  0  0  0
 32 20  1  0  0  0  0
 33 32  2  0  0  0  0
M  END
> <ID>
SCHEMBL21146684

> <InChIKey>
FAUZOCLTUYMFOQ-GHBLSXJESA-N

> <MW>
477.504

> <Series_Name>
Series_18

$$$$
SCHEMBL21146692
  Mrv1719007181911222D 0   0.00000     0.00000     0

 35 38  0  0  1  0              1 V2000 
    6.1060   -8.9115    0.0000 O   0  0  0  0  0  0  0  0  0  0  0  0
    6.2088   -8.0593    0.0000 C   0  0  0  0  0  0  0  0  0  0  0  0
    5.4253   -7.5706    0.0000 N   0  0  0  0  0  0  0  0  0  0  0  0
    7.0523   -7.8293    0.0000 C   0  0  0  0  0  0  0  0  0  0  0  0
    5.7988   -6.7563    0.0000 C   0  0  1  0  0  0  0  0  0  0  0  0
    4.9800   -6.1818    0.0000 C   0  0  0  0  0  0  0  0  0  0  0  0
    4.9917   -5.3634    0.0000 C   0  0  2  0  0  0  0  0  0  0  0  0
    5.6146   -4.8316    0.0000 C   0  0  0  0  0  0  0  0  0  0  0  0
    6.4110   -5.0228    0.0000 C   0  0  0  0  0  0  0  0  0  0  0  0
    5.8998   -5.6728    0.0000 N   0  0  0  0  0  0  0  0  0  0  0  0
    6.5990   -6.5634    0.0000 C   0  0  0  0  0  0  0  0  0  0  0  0
    6.8109   -5.6954    0.0000 C   0  0  1  0  0  0  0  0  0  0  0  0
    5.1622   -4.0076    0.0000 C   0  0  0  0  0  0  0  0  0  0  0  0
    5.8861   -4.4280    0.0000 C   0  0  0  0  0  0  0  0  0  0  0  0
    4.5796   -4.5796    0.0000 F   0  0  0  0  0  0  0  0  0  0  0  0
    4.3732   -3.7957    0.0000 F   0  0  0  0  0  0  0  0  0  0  0  0
    5.1650   -3.1718    0.0000 C   0  0  0  0  0  0  0  0  0  0  0  0
    4.4623   -2.7588    0.0000 C   0  0  0  0  0  0  0  0  0  0  0  0
    4.4660   -1.9292    0.0000 C   0  0  0  0  0  0  0  0  0  0  0  0
    3.6836   -1.5592    0.0000 C   0  0  0  0  0  0  0  0  0  0  0  0
    3.0324   -2.1763    0.0000 N   0  0  0  0  0  0  0  0  0  0  0  0
    3.7338   -0.7014    0.0000 O   0  0  0  0  0  0  0  0  0  0  0  0
    5.1883   -1.5305    0.0000 C   0  0  0  0  0  0  0  0  0  0  0  0
    5.8804   -1.9377    0.0000 C   0  0  0  0  0  0  0  0  0  0  0  0
    5.8875   -2.7613    0.0000 C   0  0  0  0  0  0  0  0  0  0  0  0
    6.5599   -3.1768    0.0000 F   0  0  0  0  0  0  0  0  0  0  0  0
    6.5599   -4.0019    0.0000 O   0  0  0  0  0  0  0  0  0  0  0  0
    0.9271   -0.6965    0.0000 C   0  0  0  0  0  0  0  0  0  0  0  0
    0.9380   -1.5215    0.0000 C   0  0  0  0  0  0  0  0  0  0  0  0
    0.2269   -0.2888    0.0000 F   0  0  0  0  0  0  0  0  0  0  0  0
    1.6595   -0.2927    0.0000 C   0  0  0  0  0  0  0  0  0  0  0  0
    2.3529   -0.7000    0.0000 C   0  0  0  0  0  0  0  0  0  0  0  0
    2.3599   -1.5214    0.0000 C   0  0  0  0  0  0  0  0  0  0  0  0
    0.1959   -1.9358    0.0000 C   0  0  0  0  0  0  0  0  0  0  0  0
    1.6443   -1.9272    0.0000 C   0  0  0  0  0  0  0  0  0  0  0  0
  1  2  2  0  0  0  0
  2  3  1  0  0  0  0
  2  4  1  0  0  0  0
  5  6  1  0  0  0  0
  5 11  1  0  0  0  0
  5  3  1  1  0  0  0
  7  8  1  0  0  0  0
  7 10  1  1  0  0  0
  7  6  1  0  0  0  0
  8  9  1  0  0  0  0
 12  9  1  0  0  0  0
 10 14  1  0  0  0  0
 12 11  1  0  0  0  0
 12 10  1  1  0  0  0
 13 14  1  0  0  0  0
 13 15  1  0  0  0  0
 13 16  1  0  0  0  0
 13 17  1  0  0  0  0
 14 27  2  0  0  0  0
 17 25  2  0  0  0  0
 18 17  1  0  0  0  0
 18 19  2  0  0  0  0
 19 20  1  0  0  0  0
 19 23  1  0  0  0  0
 20 22  2  0  0  0  0
 21 20  1  0  0  0  0
 23 24  2  0  0  0  0
 25 26  1  0  0  0  0
 25 24  1  0  0  0  0
 28 29  2  0  0  0  0
 28 31  1  0  0  0  0
 29 34  1  0  0  0  0
 29 35  1  0  0  0  0
 30 28  1  0  0  0  0
 31 32  2  0  0  0  0
 33 21  1  0  0  0  0
 33 32  1  0  0  0  0
 35 33  2  0  0  0  0
M  END
> <ID>
SCHEMBL21146692

> <InChIKey>
XBJRBBYFHFFQCZ-LDLYASANSA-N

> <MW>
491.487

> <Series_Name>
Series_18

$$$$
SCHEMBL21146693
  Mrv1719007181911222D 0   0.00000     0.00000     0

 33 36  0  0  1  0              1 V2000 
    5.3974   -6.5091    0.0000 C   0  0  2  0  0  0  0  0  0  0  0  0
    6.0433   -6.0648    0.0000 N   0  0  0  0  0  0  0  0  0  0  0  0
    5.8315   -7.0285    0.0000 C   0  0  0  0  0  0  0  0  0  0  0  0
    6.4518   -7.0227    0.0000 C   0  0  0  0  0  0  0  0  0  0  0  0
    6.7655   -6.5368    0.0000 C   0  0  0  0  0  0  0  0  0  0  0  0
    6.8244   -7.3129    0.0000 C   0  0  0  0  0  0  0  0  0  0  0  0
    6.1029   -7.7075    0.0000 C   0  0  1  0  0  0  0  0  0  0  0  0
    5.4043   -7.3341    0.0000 C   0  0  0  0  0  0  0  0  0  0  0  0
    5.3194   -4.8254    0.0000 C   0  0  0  0  0  0  0  0  0  0  0  0
    6.0766   -5.2927    0.0000 C   0  0  0  0  0  0  0  0  0  0  0  0
    4.6075   -5.2504    0.0000 F   0  0  0  0  0  0  0  0  0  0  0  0
    4.5861   -4.4146    0.0000 F   0  0  0  0  0  0  0  0  0  0  0  0
    4.6065   -3.5815    0.0000 C   0  0  0  0  0  0  0  0  0  0  0  0
    5.3329   -3.9954    0.0000 C   0  0  0  0  0  0  0  0  0  0  0  0
    3.9271   -2.3706    0.0000 C   0  0  0  0  0  0  0  0  0  0  0  0
    4.5952   -2.7521    0.0000 C   0  0  0  0  0  0  0  0  0  0  0  0
    3.1288   -3.0216    0.0000 N   0  0  0  0  0  0  0  0  0  0  0  0
    3.8360   -1.5216    0.0000 O   0  0  0  0  0  0  0  0  0  0  0  0
    5.3013   -2.3311    0.0000 C   0  0  0  0  0  0  0  0  0  0  0  0
    6.0277   -2.7254    0.0000 C   0  0  0  0  0  0  0  0  0  0  0  0
    6.0376   -3.5711    0.0000 C   0  0  0  0  0  0  0  0  0  0  0  0
    6.8935   -3.9753    0.0000 Cl  0  0  0  0  0  0  0  0  0  0  0  0
    6.7505   -4.8003    0.0000 O   0  0  0  0  0  0  0  0  0  0  0  0
    0.2786   -2.8288    0.0000 F   0  0  0  0  0  0  0  0  0  0  0  0
    0.9997   -2.3998    0.0000 C   0  0  0  0  0  0  0  0  0  0  0  0
    1.0081   -1.5606    0.0000 C   0  0  0  0  0  0  0  0  0  0  0  0
    0.2358   -1.1572    0.0000 F   0  0  0  0  0  0  0  0  0  0  0  0
    1.6716   -0.3000    0.0000 F   0  0  0  0  0  0  0  0  0  0  0  0
    1.7045   -1.1377    0.0000 C   0  0  0  0  0  0  0  0  0  0  0  0
    2.4308   -1.6194    0.0000 C   0  0  0  0  0  0  0  0  0  0  0  0
    2.4330   -2.3758    0.0000 C   0  0  0  0  0  0  0  0  0  0  0  0
    1.7199   -2.8019    0.0000 C   0  0  0  0  0  0  0  0  0  0  0  0
    6.3005   -8.5721    0.0000 O   0  0  0  0  0  0  0  0  0  0  0  0
  1  2  1  6  0  0  0
  1  3  1  0  0  0  0
  1  8  1  0  0  0  0
  2 10  1  0  0  0  0
  3  4  1  0  0  0  0
  5  4  1  0  0  0  0
  5  2  1  0  0  0  0
  5  6  1  0  0  0  0
  7  6  1  0  0  0  0
  7 33  1  6  0  0  0
  7  8  1  0  0  0  0
  9 10  1  0  0  0  0
  9 12  1  0  0  0  0
 10 23  2  0  0  0  0
 11  9  1  0  0  0  0
 13 14  2  0  0  0  0
 13 16  1  0  0  0  0
 14  9  1  0  0  0  0
 15 16  1  0  0  0  0
 15 17  1  0  0  0  0
 16 19  2  0  0  0  0
 18 15  2  0  0  0  0
 19 20  1  0  0  0  0
 20 21  2  0  0  0  0
 21 22  1  0  0  0  0
 21 14  1  0  0  0  0
 24 25  1  0  0  0  0
 25 26  2  0  0  0  0
 26 27  1  0  0  0  0
 26 29  1  0  0  0  0
 28 29  1  0  0  0  0
 29 30  2  0  0  0  0
 31 17  1  0  0  0  0
 31 30  1  0  0  0  0
 32 31  2  0  0  0  0
 32 25  1  0  0  0  0
M  END
> <ID>
SCHEMBL21146693

> <InChIKey>
SKVIVJPJBAAFLG-WYAMFQBQSA-N

> <MW>
488.84

> <Series_Name>
Series_18

$$$$
SCHEMBL21146702
  Mrv1719007181911282D 0   0.00000     0.00000     0

 33 36  0  0  1  0              1 V2000 
    5.2540   -6.5068    0.0000 C   0  0  2  0  0  0  0  0  0  0  0  0
    5.9415   -6.0806    0.0000 N   0  0  0  0  0  0  0  0  0  0  0  0
    5.7130   -7.2078    0.0000 C   0  0  0  0  0  0  0  0  0  0  0  0
    6.6653   -6.5304    0.0000 C   0  0  1  0  0  0  0  0  0  0  0  0
    6.1879   -7.2082    0.0000 C   0  0  0  0  0  0  0  0  0  0  0  0
    6.6730   -7.3266    0.0000 C   0  0  0  0  0  0  0  0  0  0  0  0
    5.9478   -7.7154    0.0000 C   0  0  1  0  0  0  0  0  0  0  0  0
    5.2398   -7.3171    0.0000 C   0  0  0  0  0  0  0  0  0  0  0  0
    4.8089   -5.5640    0.0000 F   0  0  0  0  0  0  0  0  0  0  0  0
    5.2605   -4.8504    0.0000 C   0  0  0  0  0  0  0  0  0  0  0  0
    4.3916   -4.8486    0.0000 F   0  0  0  0  0  0  0  0  0  0  0  0
    5.2360   -4.0003    0.0000 C   0  0  0  0  0  0  0  0  0  0  0  0
    3.8160   -2.3622    0.0000 C   0  0  0  0  0  0  0  0  0  0  0  0
    4.5211   -2.7640    0.0000 C   0  0  0  0  0  0  0  0  0  0  0  0
    3.0800   -3.0105    0.0000 N   0  0  0  0  0  0  0  0  0  0  0  0
    3.7954   -1.5301    0.0000 O   0  0  0  0  0  0  0  0  0  0  0  0
    5.2477   -2.3467    0.0000 C   0  0  0  0  0  0  0  0  0  0  0  0
    5.9428   -2.7605    0.0000 C   0  0  0  0  0  0  0  0  0  0  0  0
    5.9529   -3.5940    0.0000 C   0  0  0  0  0  0  0  0  0  0  0  0
    6.6867   -4.0162    0.0000 C   0  0  0  0  0  0  0  0  0  0  0  0
    5.9711   -5.3220    0.0000 C   0  0  0  0  0  0  0  0  0  0  0  0
    6.6569   -4.8486    0.0000 O   0  0  0  0  0  0  0  0  0  0  0  0
    4.5342   -3.5839    0.0000 C   0  0  0  0  0  0  0  0  0  0  0  0
    0.2186   -2.7621    0.0000 F   0  0  0  0  0  0  0  0  0  0  0  0
    0.9500   -2.3471    0.0000 C   0  0  0  0  0  0  0  0  0  0  0  0
    0.9446   -1.5221    0.0000 C   0  0  0  0  0  0  0  0  0  0  0  0
    0.2186   -1.1128    0.0000 F   0  0  0  0  0  0  0  0  0  0  0  0
    1.6613   -1.1120    0.0000 C   0  0  0  0  0  0  0  0  0  0  0  0
    1.6493   -0.2981    0.0000 F   0  0  0  0  0  0  0  0  0  0  0  0
    2.3765   -1.5146    0.0000 C   0  0  0  0  0  0  0  0  0  0  0  0
    2.3771   -2.3554    0.0000 C   0  0  0  0  0  0  0  0  0  0  0  0
    1.6822   -2.7488    0.0000 C   0  0  0  0  0  0  0  0  0  0  0  0
    5.9415   -8.5645    0.0000 O   0  0  0  0  0  0  0  0  0  0  0  0
  1  2  1  6  0  0  0
  1  3  1  0  0  0  0
  1  8  1  0  0  0  0
  2 21  1  0  0  0  0
  4  5  1  0  0  0  0
  4  2  1  6  0  0  0
  4  6  1  0  0  0  0
  5  3  1  0  0  0  0
  7  6  1  0  0  0  0
  7  8  1  0  0  0  0
  7 33  1  6  0  0  0
  9 10  1  0  0  0  0
 10 12  1  0  0  0  0
 10 21  1  0  0  0  0
 11 10  1  0  0  0  0
 12 19  2  0  0  0  0
 13 14  1  0  0  0  0
 13 15  1  0  0  0  0
 14 23  2  0  0  0  0
 16 13  2  0  0  0  0
 17 14  1  0  0  0  0
 17 18  2  0  0  0  0
 19 20  1  0  0  0  0
 19 18  1  0  0  0  0
 21 22  2  0  0  0  0
 23 12  1  0  0  0  0
 24 25  1  0  0  0  0
 25 32  2  0  0  0  0
 26 25  1  0  0  0  0
 26 28  2  0  0  0  0
 27 26  1  0  0  0  0
 28 29  1  0  0  0  0
 28 30  1  0  0  0  0
 30 31  2  0  0  0  0
 31 15  1  0  0  0  0
 32 31  1  0  0  0  0
M  END
> <ID>
SCHEMBL21146702

> <InChIKey>
XBKRISXQBMNNRQ-MUJYYYPQSA-N

> <MW>
468.424

> <Series_Name>
Series_18

$$$$
SCHEMBL21146703
  Mrv1719007181911282D 0   0.00000     0.00000     0

 32 35  0  0  1  0              1 V2000 
    5.5912   -6.5325    0.0000 C   0  0  0  0  0  0  0  0  0  0  0  0
    5.6423   -5.8233    0.0000 C   0  0  2  0  0  0  0  0  0  0  0  0
    6.2900   -5.2958    0.0000 N   0  0  0  0  0  0  0  0  0  0  0  0
    7.0275   -5.7453    0.0000 C   0  0  1  0  0  0  0  0  0  0  0  0
    6.5718   -6.4058    0.0000 C   0  0  0  0  0  0  0  0  0  0  0  0
    7.0281   -6.5545    0.0000 C   0  0  0  0  0  0  0  0  0  0  0  0
    6.3128   -6.9325    0.0000 C   0  0  2  0  0  0  0  0  0  0  0  0
    6.0512   -6.4187    0.0000 C   0  0  0  0  0  0  0  0  0  0  0  0
    5.5941   -4.0509    0.0000 C   0  0  0  0  0  0  0  0  0  0  0  0
    6.3039   -4.4595    0.0000 C   0  0  0  0  0  0  0  0  0  0  0  0
    5.1537   -4.7682    0.0000 F   0  0  0  0  0  0  0  0  0  0  0  0
    4.7479   -4.0377    0.0000 F   0  0  0  0  0  0  0  0  0  0  0  0
    5.5852   -3.2038    0.0000 C   0  0  0  0  0  0  0  0  0  0  0  0
    4.2353   -1.5691    0.0000 C   0  0  0  0  0  0  0  0  0  0  0  0
    4.8827   -1.9531    0.0000 C   0  0  0  0  0  0  0  0  0  0  0  0
    3.4088   -2.2117    0.0000 N   0  0  0  0  0  0  0  0  0  0  0  0
    4.1392   -0.7101    0.0000 O   0  0  0  0  0  0  0  0  0  0  0  0
    5.6031   -1.5459    0.0000 C   0  0  0  0  0  0  0  0  0  0  0  0
    6.3253   -1.9548    0.0000 C   0  0  0  0  0  0  0  0  0  0  0  0
    6.3205   -2.7927    0.0000 C   0  0  0  0  0  0  0  0  0  0  0  0
    7.0314   -3.2011    0.0000 C   0  0  0  0  0  0  0  0  0  0  0  0
    7.0204   -4.0377    0.0000 O   0  0  0  0  0  0  0  0  0  0  0  0
    4.8849   -2.7793    0.0000 C   0  0  0  0  0  0  0  0  0  0  0  0
    0.4297   -1.9732    0.0000 Cl  0  0  0  0  0  0  0  0  0  0  0  0
    1.2881   -1.5410    0.0000 C   0  0  0  0  0  0  0  0  0  0  0  0
    1.2924   -0.6975    0.0000 C   0  0  0  0  0  0  0  0  0  0  0  0
    0.5681   -0.3044    0.0000 F   0  0  0  0  0  0  0  0  0  0  0  0
    2.0147   -0.2842    0.0000 C   0  0  0  0  0  0  0  0  0  0  0  0
    2.7151   -0.7015    0.0000 C   0  0  0  0  0  0  0  0  0  0  0  0
    2.7295   -1.5416    0.0000 C   0  0  0  0  0  0  0  0  0  0  0  0
    2.0266   -1.9365    0.0000 C   0  0  0  0  0  0  0  0  0  0  0  0
    6.2900   -7.8117    0.0000 O   0  0  0  0  0  0  0  0  0  0  0  0
  7  1  1  0  0  0  0
  2  1  1  0  0  0  0
  2  3  1  6  0  0  0
  2  8  1  0  0  0  0
  3 10  1  0  0  0  0
  4  5  1  0  0  0  0
  4  3  1  6  0  0  0
  4  6  1  0  0  0  0
  5  8  1  0  0  0  0
  7  6  1  0  0  0  0
  7 32  1  6  0  0  0
  9 10  1  0  0  0  0
  9 11  1  0  0  0  0
  9 13  1  0  0  0  0
 10 22  2  0  0  0  0
 12  9  1  0  0  0  0
 13 20  2  0  0  0  0
 14 15  1  0  0  0  0
 14 16  1  0  0  0  0
 15 23  2  0  0  0  0
 17 14  2  0  0  0  0
 18 15  1  0  0  0  0
 18 19  2  0  0  0  0
 20 19  1  0  0  0  0
 20 21  1  0  0  0  0
 23 13  1  0  0  0  0
 24 25  1  0  0  0  0
 25 31  2  0  0  0  0
 26 25  1  0  0  0  0
 26 28  2  0  0  0  0
 27 26  1  0  0  0  0
 28 29  1  0  0  0  0
 29 30  2  0  0  0  0
 30 16  1  0  0  0  0
 30 31  1  0  0  0  0
M  END
> <ID>
SCHEMBL21146703

> <InChIKey>
NAYIGSQRPRMAQR-BJWYYQGGSA-N

> <MW>
466.89

> <Series_Name>
Series_18

$$$$
SCHEMBL21146704
  Mrv1719007181911282D 0   0.00000     0.00000     0

 32 35  0  0  1  0              1 V2000 
    5.2202   -5.7612    0.0000 C   0  0  2  0  0  0  0  0  0  0  0  0
    5.8918   -5.2415    0.0000 N   0  0  0  0  0  0  0  0  0  0  0  0
    5.6184   -6.3179    0.0000 C   0  0  0  0  0  0  0  0  0  0  0  0
    6.1857   -6.3105    0.0000 C   0  0  0  0  0  0  0  0  0  0  0  0
    6.5965   -5.6336    0.0000 C   0  0  1  0  0  0  0  0  0  0  0  0
    6.6085   -6.4692    0.0000 C   0  0  0  0  0  0  0  0  0  0  0  0
    5.9006   -6.8544    0.0000 C   0  0  1  0  0  0  0  0  0  0  0  0
    5.1956   -6.4549    0.0000 C   0  0  0  0  0  0  0  0  0  0  0  0
    5.1928   -3.9948    0.0000 C   0  0  0  0  0  0  0  0  0  0  0  0
    4.7686   -4.7095    0.0000 F   0  0  0  0  0  0  0  0  0  0  0  0
    4.3548   -4.0001    0.0000 F   0  0  0  0  0  0  0  0  0  0  0  0
    5.1836   -3.1687    0.0000 C   0  0  0  0  0  0  0  0  0  0  0  0
    4.4692   -2.7684    0.0000 C   0  0  0  0  0  0  0  0  0  0  0  0
    3.7636   -3.1725    0.0000 F   0  0  0  0  0  0  0  0  0  0  0  0
    4.4856   -1.9360    0.0000 C   0  0  0  0  0  0  0  0  0  0  0  0
    3.6900   -1.5709    0.0000 C   0  0  0  0  0  0  0  0  0  0  0  0
    3.7636   -0.7094    0.0000 O   0  0  0  0  0  0  0  0  0  0  0  0
    5.1998   -1.5230    0.0000 C   0  0  0  0  0  0  0  0  0  0  0  0
    5.8991   -1.9288    0.0000 C   0  0  0  0  0  0  0  0  0  0  0  0
    5.9071   -2.7583    0.0000 C   0  0  0  0  0  0  0  0  0  0  0  0
    5.8392   -4.3498    0.0000 C   0  0  0  0  0  0  0  0  0  0  0  0
    6.5815   -4.0001    0.0000 O   0  0  0  0  0  0  0  0  0  0  0  0
    0.9489   -1.5455    0.0000 C   0  0  0  0  0  0  0  0  0  0  0  0
    0.9335   -0.7069    0.0000 C   0  0  0  0  0  0  0  0  0  0  0  0
    0.2167   -0.2956    0.0000 F   0  0  0  0  0  0  0  0  0  0  0  0
    1.6701   -0.2995    0.0000 C   0  0  0  0  0  0  0  0  0  0  0  0
    2.3558   -0.6958    0.0000 C   0  0  0  0  0  0  0  0  0  0  0  0
    2.3605   -1.5320    0.0000 C   0  0  0  0  0  0  0  0  0  0  0  0
    3.0543   -2.1872    0.0000 N   0  0  0  0  0  0  0  0  0  0  0  0
    1.6418   -1.9218    0.0000 C   0  0  0  0  0  0  0  0  0  0  0  0
    0.2242   -1.9587    0.0000 C   0  0  0  0  0  0  0  0  0  0  0  0
    5.8918   -7.7046    0.0000 O   0  0  0  0  0  0  0  0  0  0  0  0
  1  2  1  6  0  0  0
  1  3  1  0  0  0  0
  1  8  1  0  0  0  0
  2 21  1  0  0  0  0
  3  4  1  0  0  0  0
  5  2  1  6  0  0  0
  5  6  1  0  0  0  0
  5  4  1  0  0  0  0
  7  6  1  0  0  0  0
  7 32  1  6  0  0  0
  7  8  1  0  0  0  0
  9 10  1  0  0  0  0
  9 12  1  0  0  0  0
  9 21  1  0  0  0  0
 11  9  1  0  0  0  0
 12 20  2  0  0  0  0
 13 12  1  0  0  0  0
 13 15  2  0  0  0  0
 14 13  1  0  0  0  0
 15 16  1  0  0  0  0
 15 18  1  0  0  0  0
 16 17  2  0  0  0  0
 18 19  2  0  0  0  0
 20 19  1  0  0  0  0
 21 22  2  0  0  0  0
 23 24  1  0  0  0  0
 23 30  2  0  0  0  0
 24 26  2  0  0  0  0
 25 24  1  0  0  0  0
 26 27  1  0  0  0  0
 27 28  2  0  0  0  0
 28 29  1  0  0  0  0
 28 30  1  0  0  0  0
 29 16  1  0  0  0  0
 31 23  1  0  0  0  0
M  END
> <ID>
SCHEMBL21146704

> <InChIKey>
TYOQBBSLVNQULB-MUJYYYPQSA-N

> <MW>
450.434

> <Series_Name>
Series_18

$$$$
SCHEMBL21146717
  Mrv1719007181911342D 0   0.00000     0.00000     0

 33 36  0  0  1  0              1 V2000 
    5.2154   -6.5978    0.0000 C   0  0  0  0  0  0  0  0  0  0  0  0
    5.2761   -5.8874    0.0000 C   0  0  2  0  0  0  0  0  0  0  0  0
    5.9271   -5.3522    0.0000 N   0  0  0  0  0  0  0  0  0  0  0  0
    6.6597   -5.8934    0.0000 C   0  0  1  0  0  0  0  0  0  0  0  0
    6.2500   -6.4305    0.0000 C   0  0  0  0  0  0  0  0  0  0  0  0
    6.6754   -6.6199    0.0000 C   0  0  0  0  0  0  0  0  0  0  0  0
    5.9243   -6.9995    0.0000 C   0  0  2  0  0  0  0  0  0  0  0  0
    5.9253   -5.9321    0.0000 C   0  0  0  0  0  0  0  0  0  0  0  0
    5.6079   -6.4868    0.0000 C   0  0  0  0  0  0  0  0  0  0  0  0
    5.2124   -4.0997    0.0000 C   0  0  0  0  0  0  0  0  0  0  0  0
    5.9546   -4.5339    0.0000 C   0  0  0  0  0  0  0  0  0  0  0  0
    4.4205   -3.8655    0.0000 F   0  0  0  0  0  0  0  0  0  0  0  0
    5.2409   -3.2706    0.0000 C   0  0  0  0  0  0  0  0  0  0  0  0
    4.5517   -2.8338    0.0000 C   0  0  0  0  0  0  0  0  0  0  0  0
    4.5533   -1.9946    0.0000 C   0  0  0  0  0  0  0  0  0  0  0  0
    3.8659   -1.6042    0.0000 C   0  0  0  0  0  0  0  0  0  0  0  0
    3.0725   -2.2301    0.0000 N   0  0  0  0  0  0  0  0  0  0  0  0
    3.8060   -0.7533    0.0000 O   0  0  0  0  0  0  0  0  0  0  0  0
    5.2728   -1.6067    0.0000 C   0  0  0  0  0  0  0  0  0  0  0  0
    5.9734   -2.0104    0.0000 C   0  0  0  0  0  0  0  0  0  0  0  0
    5.9782   -2.8546    0.0000 C   0  0  0  0  0  0  0  0  0  0  0  0
    6.6803   -3.2906    0.0000 F   0  0  0  0  0  0  0  0  0  0  0  0
    6.6605   -4.1232    0.0000 O   0  0  0  0  0  0  0  0  0  0  0  0
    0.2101   -1.9480    0.0000 C   0  0  0  0  0  0  0  0  0  0  0  0
    0.9418   -1.5475    0.0000 C   0  0  0  0  0  0  0  0  0  0  0  0
    0.9598   -0.6984    0.0000 C   0  0  0  0  0  0  0  0  0  0  0  0
    0.2379   -0.2974    0.0000 F   0  0  0  0  0  0  0  0  0  0  0  0
    1.6990   -0.3209    0.0000 C   0  0  0  0  0  0  0  0  0  0  0  0
    2.3994   -0.7297    0.0000 C   0  0  0  0  0  0  0  0  0  0  0  0
    2.3812   -1.5693    0.0000 C   0  0  0  0  0  0  0  0  0  0  0  0
    1.6667   -1.9818    0.0000 C   0  0  0  0  0  0  0  0  0  0  0  0
    4.6386   -4.6782    0.0000 F   0  0  0  0  0  0  0  0  0  0  0  0
    5.9072   -7.8697    0.0000 O   0  0  0  0  0  0  0  0  0  0  0  0
  2  1  1  0  0  0  0
  2  9  1  0  0  0  0
  2  3  1  6  0  0  0
  3 11  1  0  0  0  0
  4  5  1  0  0  0  0
  4  3  1  6  0  0  0
  4  6  1  0  0  0  0
  5  8  1  0  0  0  0
  7  6  1  0  0  0  0
  7  1  1  0  0  0  0
  7 33  1  6  0  0  0
  8  9  1  0  0  0  0
 10 11  1  0  0  0  0
 10 12  1  0  0  0  0
 10 32  1  0  0  0  0
 10 13  1  0  0  0  0
 11 23  2  0  0  0  0
 13 14  1  0  0  0  0
 13 21  2  0  0  0  0
 14 15  2  0  0  0  0
 15 16  1  0  0  0  0
 15 19  1  0  0  0  0
 16 17  1  0  0  0  0
 18 16  2  0  0  0  0
 19 20  2  0  0  0  0
 21 22  1  0  0  0  0
 21 20  1  0  0  0  0
 24 25  1  0  0  0  0
 25 26  2  0  0  0  0
 25 31  1  0  0  0  0
 26 27  1  0  0  0  0
 26 28  1  0  0  0  0
 28 29  2  0  0  0  0
 30 17  1  0  0  0  0
 30 29  1  0  0  0  0
 31 30  2  0  0  0  0
M  END
> <ID>
SCHEMBL21146717

> <InChIKey>
UIRVQVBUAQZKSV-BCDXTJNWSA-N

> <MW>
464.461

> <Series_Name>
Series_18

$$$$
SCHEMBL21146718
  Mrv1719007181911342D 0   0.00000     0.00000     0

 29 31  0  0  0  0              1 V2000 
    0.1389   -0.2130    0.0000 F   0  0  0  0  0  0  0  0  0  0  0  0
    3.7144   -0.6298    0.0000 O   0  0  0  0  0  0  0  0  0  0  0  0
    0.1297   -1.8526    0.0000 C   0  0  0  0  0  0  0  0  0  0  0  0
    6.6970   -3.1309    0.0000 Cl  0  0  0  0  0  0  0  0  0  0  0  0
    4.3258   -3.9553    0.0000 F   0  0  0  0  0  0  0  0  0  0  0  0
    4.7426   -4.6778    0.0000 F   0  0  0  0  0  0  0  0  0  0  0  0
    6.5859   -3.9553    0.0000 O   0  0  0  0  0  0  0  0  0  0  0  0
    2.2787   -1.4326    0.0000 C   0  0  0  0  0  0  0  0  0  0  0  0
    2.2787   -0.6114    0.0000 C   0  0  0  0  0  0  0  0  0  0  0  0
    1.5747   -0.1852    0.0000 C   0  0  0  0  0  0  0  0  0  0  0  0
    0.8275   -0.5990    0.0000 C   0  0  0  0  0  0  0  0  0  0  0  0
    0.8336   -1.4326    0.0000 C   0  0  0  0  0  0  0  0  0  0  0  0
    3.6434   -1.4574    0.0000 C   0  0  0  0  0  0  0  0  0  0  0  0
    1.5932   -1.8340    0.0000 C   0  0  0  0  0  0  0  0  0  0  0  0
    4.4276   -1.8464    0.0000 C   0  0  0  0  0  0  0  0  0  0  0  0
    5.8726   -2.6739    0.0000 C   0  0  0  0  0  0  0  0  0  0  0  0
    5.8726   -1.8526    0.0000 C   0  0  0  0  0  0  0  0  0  0  0  0
    5.3169   -1.5191    0.0000 C   0  0  0  0  0  0  0  0  0  0  0  0
    4.4276   -2.6677    0.0000 C   0  0  0  0  0  0  0  0  0  0  0  0
    5.1501   -3.1061    0.0000 C   0  0  0  0  0  0  0  0  0  0  0  0
    5.1363   -3.9321    0.0000 C   0  0  0  0  0  0  0  0  0  0  0  0
    5.8850   -4.4091    0.0000 C   0  0  0  0  0  0  0  0  0  0  0  0
    6.5951   -5.6133    0.0000 C   0  0  0  0  0  0  0  0  0  0  0  0
    6.5951   -6.4284    0.0000 C   0  0  0  0  0  0  0  0  0  0  0  0
    5.9097   -6.8360    0.0000 C   0  0  0  0  0  0  0  0  0  0  0  0
    5.1501   -6.4284    0.0000 C   0  0  0  0  0  0  0  0  0  0  0  0
    5.1501   -5.6133    0.0000 C   0  0  0  0  0  0  0  0  0  0  0  0
    5.8726   -5.2150    0.0000 N   0  0  0  0  0  0  0  0  0  0  0  0
    2.9996   -1.8610    0.0000 N   0  0  0  0  0  0  0  0  0  0  0  0
  8  9  2  0  0  0  0
  9 10  1  0  0  0  0
 10 11  2  0  0  0  0
  1 11  1  0  0  0  0
 11 12  1  0  0  0  0
  3 12  1  0  0  0  0
  2 13  2  0  0  0  0
  8 14  1  0  0  0  0
 12 14  2  0  0  0  0
 13 15  1  0  0  0  0
  4 16  1  0  0  0  0
 16 17  1  0  0  0  0
 17 18  2  0  0  0  0
 15 18  1  0  0  0  0
 15 19  2  0  0  0  0
 19 20  1  0  0  0  0
 16 20  2  0  0  0  0
 20 21  1  0  0  0  0
  5 21  1  0  0  0  0
  6 21  1  0  0  0  0
 21 22  1  0  0  0  0
  7 22  2  0  0  0  0
 23 24  1  0  0  0  0
 24 25  1  0  0  0  0
 25 26  1  0  0  0  0
 26 27  1  0  0  0  0
 22 28  1  0  0  0  0
 23 28  1  0  0  0  0
 27 28  1  0  0  0  0
  8 29  1  0  0  0  0
 13 29  1  0  0  0  0
M  END
> <ID>
SCHEMBL21146718

> <InChIKey>
YHPTUOBFHXAFGA-UHFFFAOYSA-N

> <MW>
424.85

> <Series_Name>
Series_18

$$$$
SCHEMBL21136523
  Mrv1719007171903502D 0   0.00000     0.00000     0

 34 40  0  0  1  0              1 V2000 
    3.2788   -3.1629    0.0000 C   0  0  0  0  0  0  0  0  0  0  0  0
    2.6382   -2.7184    0.0000 C   0  0  1  0  0  0  0  0  0  0  0  0
    2.6208   -1.8746    0.0000 C   0  0  0  0  0  0  0  0  0  0  0  0
    3.3101   -1.4171    0.0000 C   0  0  0  0  0  0  0  0  0  0  0  0
    3.9856   -1.8695    0.0000 C   0  0  0  0  0  0  0  0  0  0  0  0
    4.5898   -1.3122    0.0000 C   0  0  0  0  0  0  0  0  0  0  0  0
    5.3977   -1.5208    0.0000 C   0  0  0  0  0  0  0  0  0  0  0  0
    5.8237   -0.8143    0.0000 C   0  0  0  0  0  0  0  0  0  0  0  0
    6.5990   -0.8572    0.0000 C   0  0  0  0  0  0  0  0  0  0  0  0
    6.9571   -1.6078    0.0000 C   0  0  0  0  0  0  0  0  0  0  0  0
    7.5464   -0.9591    0.0000 C   0  0  0  0  0  0  0  0  0  0  0  0
    7.7143   -1.8838    0.0000 C   0  0  1  0  0  0  0  0  0  0  0  0
    8.4603   -1.4163    0.0000 C   0  0  0  0  0  0  0  0  0  0  0  0
    8.3958   -0.5507    0.0000 C   0  0  0  0  0  0  0  0  0  0  0  0
    9.0713   -0.1405    0.0000 C   0  0  0  0  0  0  0  0  0  0  0  0
    9.7614   -0.5641    0.0000 C   0  0  0  0  0  0  0  0  0  0  0  0
   10.4347   -0.1125    0.0000 C   0  0  0  0  0  0  0  0  0  0  0  0
   11.0928   -1.4572    0.0000 N   0  0  0  0  0  0  0  0  0  0  0  0
   11.1019   -0.5528    0.0000 C   0  0  0  0  0  0  0  0  0  0  0  0
   10.4167   -1.8838    0.0000 C   0  0  0  0  0  0  0  0  0  0  0  0
    9.7546   -1.4582    0.0000 C   0  0  0  0  0  0  0  0  0  0  0  0
    7.7070   -2.7445    0.0000 C   0  0  0  0  0  0  0  0  0  0  0  0
    6.9189   -3.0521    0.0000 C   0  0  0  0  0  0  0  0  0  0  0  0
    6.5098   -2.3655    0.0000 C   0  0  1  0  0  0  0  0  0  0  0  0
    5.7198   -2.3040    0.0000 C   0  0  1  0  0  0  0  0  0  0  0  0
    5.4126   -3.0625    0.0000 C   0  0  0  0  0  0  0  0  0  0  0  0
    4.6021   -3.2830    0.0000 C   0  0  0  0  0  0  0  0  0  0  0  0
    3.9839   -2.7393    0.0000 C   0  0  1  0  0  0  0  0  0  0  0  0
    9.0803   -1.8736    0.0000 C   0  0  0  0  0  0  0  0  0  0  0  0
    1.3977   -1.8810    0.0000 C   0  0  0  0  0  0  0  0  0  0  0  0
    1.2593   -2.7366    0.0000 C   0  0  0  0  0  0  0  0  0  0  0  0
    1.9182   -3.4052    0.0000 N   0  0  0  0  0  0  0  0  0  0  0  0
    0.3866   -3.2118    0.0000 C   0  0  0  0  0  0  0  0  0  0  0  0
    4.7286   -2.2602    0.0000 O   0  0  0  0  0  0  0  0  0  0  0  0
 28  1  1  0  0  0  0
  2  1  1  0  0  0  0
  2 32  1  6  0  0  0
  2  3  1  0  0  0  0
  3  4  1  0  0  0  0
  4  5  1  0  0  0  0
  5  6  2  0  0  0  0
  7  6  1  0  0  0  0
  7  8  2  0  0  0  0
  8  9  1  0  0  0  0
  9 10  1  0  0  0  0
 11 10  1  0  0  0  0
 12 13  1  1  0  0  0
 12 10  1  0  0  0  0
 13 29  2  0  0  0  0
 14 15  2  0  0  0  0
 14 13  1  0  0  0  0
 16 15  1  0  0  0  0
 16 17  1  0  0  0  0
 17 19  2  0  0  0  0
 18 19  1  0  0  0  0
 20 18  2  0  0  0  0
 20 21  1  0  0  0  0
 21 16  2  0  0  0  0
 22 23  1  0  0  0  0
 12 22  1  0  0  0  0
 24 23  1  1  0  0  0
 24 10  1  0  0  0  0
 24 25  1  0  0  0  0
 25 26  1  0  0  0  0
 25  7  1  0  0  0  0
 25 34  1  6  0  0  0
 27 26  1  0  0  0  0
 28 27  1  0  0  0  0
 28  5  1  0  0  0  0
 28 34  1  6  0  0  0
 29 21  1  0  0  0  0
 30 31  1  0  0  0  0
 31 33  1  0  0  0  0
 32 31  1  0  0  0  0
M  END
> <ID>
SCHEMBL21136523

> <InChIKey>
PMRXNJUGXQQOHX-JXENDXLYSA-N

> <MW>
454.658

> <Series_Name>
Series_16

$$$$
SCHEMBL21136569
  Mrv1719007171903582D 0   0.00000     0.00000     0

 36 41  0  0  0  0              1 V2000 
    4.8312    1.8109    0.0000 O   0  0  0  0  0  0  0  0  0  0  0  0
    2.0671    0.2560    0.0000 C   0  0  0  0  0  0  0  0  0  0  0  0
    0.6851    0.0000    0.0000 F   0  0  0  0  0  0  0  0  0  0  0  0
    0.0000    1.3843    0.0000 F   0  0  0  0  0  0  0  0  0  0  0  0
    7.6281    3.0452    0.0000 C   0  0  0  0  0  0  0  0  0  0  0  0
    5.9045    1.8248    0.0000 C   0  0  1  0  0  0  0  0  0  0  0  0
    9.2989    4.0412    0.0000 C   0  0  0  0  0  0  0  0  0  0  0  0
    8.6277    3.6147    0.0000 C   0  0  0  0  0  0  0  0  0  0  0  0
    8.6184    2.7011    0.0000 C   0  0  0  0  0  0  0  0  0  0  0  0
   10.0260    3.6194    0.0000 C   0  0  0  0  0  0  0  0  0  0  0  0
   10.7113    4.0342    0.0000 C   0  0  0  0  0  0  0  0  0  0  0  0
   11.4104    3.6147    0.0000 C   0  0  0  0  0  0  0  0  0  0  0  0
   10.0121    2.7290    0.0000 C   0  0  0  0  0  0  0  0  0  0  0  0
    6.0408    3.3770    0.0000 C   0  0  0  0  0  0  0  0  0  0  0  0
    5.5700    2.6638    0.0000 C   0  0  0  0  0  0  0  0  0  0  0  0
    7.1874    2.5729    0.0000 C   0  0  0  0  0  0  0  0  0  0  0  0
    6.8239    3.3210    0.0000 C   0  0  0  0  0  0  0  0  0  0  0  0
    4.7823    2.8456    0.0000 C   0  0  0  0  0  0  0  0  0  0  0  0
    4.1857    2.3468    0.0000 C   0  0  0  0  0  0  0  0  0  0  0  0
    3.4819    2.7407    0.0000 C   0  0  0  0  0  0  0  0  0  0  0  0
    2.7827    2.3003    0.0000 C   0  0  0  0  0  0  0  0  0  0  0  0
    2.7734    1.3726    0.0000 C   0  0  0  0  0  0  0  0  0  0  0  0
    9.3688    2.2863    0.0000 C   0  0  0  0  0  0  0  0  0  0  0  0
   10.6693    2.2863    0.0000 C   0  0  0  0  0  0  0  0  0  0  0  0
    7.9332    2.2723    0.0000 C   0  0  0  0  0  0  0  0  0  0  0  0
    7.9286    1.3773    0.0000 C   0  0  0  0  0  0  0  0  0  0  0  0
    7.2154    1.0558    0.0000 C   0  0  0  0  0  0  0  0  0  0  0  0
    5.5654    1.0277    0.0000 C   0  0  0  0  0  0  0  0  0  0  0  0
    4.8522    0.8320    0.0000 C   0  0  0  0  0  0  0  0  0  0  0  0
    3.4819    0.9439    0.0000 C   0  0  0  0  0  0  0  0  0  0  0  0
    1.3704    1.3773    0.0000 C   0  0  0  0  0  0  0  0  0  0  0  0
    0.7085    0.9672    0.0000 C   0  0  0  0  0  0  0  0  0  0  0  0
    6.6980    1.6966    0.0000 C   0  0  0  0  0  0  0  0  0  0  0  0
    4.2463    1.4224    0.0000 C   0  0  0  0  0  0  0  0  0  0  0  0
    2.0695    0.9019    0.0000 N   0  0  0  0  0  0  0  0  0  0  0  0
   11.4104    2.6918    0.0000 N   0  0  0  0  0  0  0  0  0  0  0  0
  7  8  2  0  0  0  0
  8  9  1  0  0  0  0
 10 11  1  0  0  0  0
 11 12  2  0  0  0  0
 10 13  2  0  0  0  0
 35  2  1  0  0  0  0
 14 15  2  0  0  0  0
  6 15  1  0  0  0  0
 16 17  1  0  0  0  0
 14 17  1  0  0  0  0
 15 18  1  0  0  0  0
 18 19  2  0  0  0  0
 19 20  1  0  0  0  0
 20 21  1  0  0  0  0
 21 22  1  0  0  0  0
 13 23  1  0  0  0  0
  9 23  2  0  0  0  0
 13 24  1  0  0  0  0
  9 25  1  0  0  0  0
 16 25  1  0  0  0  0
 25 26  1  0  0  0  0
 26 27  1  0  0  0  0
  6 28  1  0  0  0  0
 28 29  1  0  0  0  0
 22 30  1  0  0  0  0
 31 32  1  0  0  0  0
  3 32  1  0  0  0  0
  4 32  1  0  0  0  0
 10  7  1  0  0  0  0
 27 33  1  0  0  0  0
  6 33  1  0  0  0  0
 16 33  1  0  0  0  0
 19 34  1  0  0  0  0
 29 34  1  0  0  0  0
 30 34  1  0  0  0  0
 22 35  1  0  0  0  0
 31 35  1  0  0  0  0
 12 36  1  0  0  0  0
 24 36  2  0  0  0  0
 16  5  1  0  0  0  0
  6  1  1  6  0  0  0
M  END
> <ID>
SCHEMBL21136569

> <InChIKey>
RYADSDXCMFAOKV-YYKVYYDVSA-N

> <MW>
492.655

> <Series_Name>
Series_16

$$$$
SCHEMBL21136575
  Mrv1719007171903592D 0   0.00000     0.00000     0

 31 37  0  0  1  0              1 V2000 
    1.6474   -3.0759    0.0000 C   0  0  0  0  0  0  0  0  0  0  0  0
    0.9095   -2.6664    0.0000 C   0  0  1  0  0  0  0  0  0  0  0  0
    0.4685   -2.9274    0.0000 C   0  0  0  0  0  0  0  0  0  0  0  0
    0.9135   -1.8189    0.0000 C   0  0  0  0  0  0  0  0  0  0  0  0
    1.6021   -1.4168    0.0000 C   0  0  0  0  0  0  0  0  0  0  0  0
    2.3450   -1.8177    0.0000 C   0  0  0  0  0  0  0  0  0  0  0  0
    2.9611   -1.2954    0.0000 C   0  0  0  0  0  0  0  0  0  0  0  0
    3.7587   -1.4652    0.0000 C   0  0  0  0  0  0  0  0  0  0  0  0
    4.1918   -0.7847    0.0000 C   0  0  0  0  0  0  0  0  0  0  0  0
    5.0446   -0.8412    0.0000 C   0  0  0  0  0  0  0  0  0  0  0  0
    5.4136   -1.5590    0.0000 C   0  0  0  0  0  0  0  0  0  0  0  0
    6.0306   -0.8973    0.0000 C   0  0  0  0  0  0  0  0  0  0  0  0
    6.1655   -1.8199    0.0000 C   0  0  0  0  0  0  0  0  0  0  0  0
    6.8803   -1.4184    0.0000 C   0  0  0  0  0  0  0  0  0  0  0  0
    9.0066   -0.1349    0.0000 C   0  0  0  0  0  0  0  0  0  0  0  0
    8.2645   -0.5602    0.0000 C   0  0  0  0  0  0  0  0  0  0  0  0
    9.7168   -1.3743    0.0000 N   0  0  0  0  0  0  0  0  0  0  0  0
    9.6978   -0.5701    0.0000 C   0  0  0  0  0  0  0  0  0  0  0  0
    8.2735   -1.4036    0.0000 C   0  0  0  0  0  0  0  0  0  0  0  0
    9.0621   -1.8120    0.0000 C   0  0  0  0  0  0  0  0  0  0  0  0
    7.5621   -1.8213    0.0000 C   0  0  0  0  0  0  0  0  0  0  0  0
    6.1496   -2.6893    0.0000 C   0  0  0  0  0  0  0  0  0  0  0  0
    5.3972   -2.9611    0.0000 C   0  0  0  0  0  0  0  0  0  0  0  0
    3.7556   -3.0286    0.0000 C   0  0  0  0  0  0  0  0  0  0  0  0
    2.9668   -3.1939    0.0000 C   0  0  0  0  0  0  0  0  0  0  0  0
    2.3343   -2.6525    0.0000 C   0  0  1  0  0  0  0  0  0  0  0  0
    4.9485   -2.2948    0.0000 C   0  0  1  0  0  0  0  0  0  0  0  0
    4.0787   -2.2389    0.0000 C   0  0  2  0  0  0  0  0  0  0  0  0
    7.5689   -0.1416    0.0000 C   0  0  0  0  0  0  0  0  0  0  0  0
    6.9007   -0.5546    0.0000 C   0  0  0  0  0  0  0  0  0  0  0  0
    3.1042   -2.1827    0.0000 O   0  0  0  0  0  0  0  0  0  0  0  0
  2  1  1  0  0  0  0
 26  1  1  0  0  0  0
  2  3  1  1  0  0  0
  2  4  1  0  0  0  0
  5  4  1  0  0  0  0
  5  6  1  0  0  0  0
  6  7  2  0  0  0  0
  7  8  1  0  0  0  0
  8  9  2  0  0  0  0
  9 10  1  0  0  0  0
 10 11  1  0  0  0  0
 11 12  1  0  0  0  0
 27 11  1  0  0  0  0
 13 14  1  0  0  0  0
 13 22  1  0  0  0  0
 13 11  1  0  0  0  0
 14 21  2  0  0  0  0
 15 16  1  0  0  0  0
 15 18  2  0  0  0  0
 16 19  2  0  0  0  0
 17 18  1  0  0  0  0
 19 20  1  0  0  0  0
 20 17  2  0  0  0  0
 21 19  1  0  0  0  0
 22 23  1  0  0  0  0
 24 25  1  0  0  0  0
 26 25  1  0  0  0  0
 26  6  1  0  0  0  0
 26 31  1  6  0  0  0
 27 23  1  1  0  0  0
 27 28  1  0  0  0  0
 28  8  1  0  0  0  0
 28 31  1  6  0  0  0
 28 24  1  0  0  0  0
 29 16  1  0  0  0  0
 30 29  2  0  0  0  0
 30 14  1  0  0  0  0
M  END
> <ID>
SCHEMBL21136575

> <InChIKey>
IHQZMGYXROUATH-MPHDOVDXSA-N

> <MW>
411.589

> <Series_Name>
Series_16

$$$$
SCHEMBL21136577
  Mrv1719007171903592D 0   0.00000     0.00000     0

 37 44  0  0  1  0              1 V2000 
    2.6982   -3.0537    0.0000 N   0  0  0  0  0  0  0  0  0  0  0  0
    2.6718   -3.9434    0.0000 C   0  0  0  0  0  0  0  0  0  0  0  0
    1.9796   -4.3256    0.0000 C   0  0  0  0  0  0  0  0  0  0  0  0
    1.3087   -3.8938    0.0000 N   0  0  0  0  0  0  0  0  0  0  0  0
    1.9343   -2.6601    0.0000 C   0  0  0  0  0  0  0  0  0  0  0  0
    1.2547   -3.1043    0.0000 C   0  0  0  0  0  0  0  0  0  0  0  0
    4.7341   -2.6753    0.0000 C   0  0  1  0  0  0  0  0  0  0  0  0
    4.0803   -3.0637    0.0000 C   0  0  0  0  0  0  0  0  0  0  0  0
    3.3715   -2.6133    0.0000 C   0  0  0  0  0  0  0  0  0  0  0  0
    3.3667   -1.7956    0.0000 C   0  0  0  0  0  0  0  0  0  0  0  0
    4.0897   -1.3983    0.0000 C   0  0  0  0  0  0  0  0  0  0  0  0
    4.8146   -1.7719    0.0000 C   0  0  0  0  0  0  0  0  0  0  0  0
    5.4339   -1.2756    0.0000 C   0  0  0  0  0  0  0  0  0  0  0  0
    6.2444   -1.4453    0.0000 C   0  0  0  0  0  0  0  0  0  0  0  0
    6.6946   -0.7433    0.0000 C   0  0  0  0  0  0  0  0  0  0  0  0
    7.4888   -0.7983    0.0000 C   0  0  0  0  0  0  0  0  0  0  0  0
    7.8674   -1.5480    0.0000 C   0  0  2  0  0  0  0  0  0  0  0  0
    8.3531   -0.8563    0.0000 N   0  0  0  0  0  0  0  0  0  0  0  0
    9.3519   -0.5469    0.0000 C   0  0  0  0  0  0  0  0  0  0  0  0
   10.0744   -0.1333    0.0000 C   0  0  0  0  0  0  0  0  0  0  0  0
   10.7633   -0.5506    0.0000 C   0  0  0  0  0  0  0  0  0  0  0  0
   11.4581   -0.1353    0.0000 C   0  0  0  0  0  0  0  0  0  0  0  0
   12.1399   -0.5516    0.0000 C   0  0  0  0  0  0  0  0  0  0  0  0
   12.1823   -1.3733    0.0000 N   0  0  0  0  0  0  0  0  0  0  0  0
   10.7706   -1.4069    0.0000 C   0  0  0  0  0  0  0  0  0  0  0  0
   11.4497   -1.7992    0.0000 C   0  0  0  0  0  0  0  0  0  0  0  0
   10.0260   -1.8027    0.0000 C   0  0  0  0  0  0  0  0  0  0  0  0
    9.3327   -1.4232    0.0000 C   0  0  0  0  0  0  0  0  0  0  0  0
    8.6493   -1.7989    0.0000 C   0  0  0  0  0  0  0  0  0  0  0  0
    8.6543   -2.6488    0.0000 C   0  0  0  0  0  0  0  0  0  0  0  0
    6.5684   -2.2138    0.0000 C   0  0  2  0  0  0  0  0  0  0  0  0
    6.2552   -2.9929    0.0000 C   0  0  0  0  0  0  0  0  0  0  0  0
    5.4206   -3.1754    0.0000 C   0  0  0  0  0  0  0  0  0  0  0  0
    7.8160   -2.9026    0.0000 C   0  0  0  0  0  0  0  0  0  0  0  0
    7.3838   -2.2869    0.0000 C   0  0  2  0  0  0  0  0  0  0  0  0
    0.2424   -4.3139    0.0000 C   0  0  0  0  0  0  0  0  0  0  0  0
    5.5903   -2.1489    0.0000 O   0  0  0  0  0  0  0  0  0  0  0  0
  1  2  1  0  0  0  0
  2  3  1  0  0  0  0
  3  4  1  0  0  0  0
  5  1  1  0  0  0  0
  5  6  1  0  0  0  0
  6  4  1  0  0  0  0
  7  8  1  0  0  0  0
  7 12  1  0  0  0  0
  7 37  1  6  0  0  0
  8  9  1  0  0  0  0
  9 10  1  0  0  0  0
  9  1  1  0  0  0  0
 10 11  1  0  0  0  0
 11 12  1  0  0  0  0
 12 13  2  0  0  0  0
 13 14  1  0  0  0  0
 14 15  2  0  0  0  0
 15 16  1  0  0  0  0
 17 16  1  0  0  0  0
 17 18  1  1  0  0  0
 19 20  2  0  0  0  0
 19 28  1  0  0  0  0
 20 21  1  0  0  0  0
 21 25  2  0  0  0  0
 22 21  1  0  0  0  0
 22 23  2  0  0  0  0
 24 23  1  0  0  0  0
 25 26  1  0  0  0  0
 25 27  1  0  0  0  0
 26 24  2  0  0  0  0
 28 27  2  0  0  0  0
 29 28  1  0  0  0  0
 29 30  1  0  0  0  0
 17 29  1  0  0  0  0
 31 32  1  0  0  0  0
 31 14  1  0  0  0  0
 31 37  1  6  0  0  0
  7 33  1  0  0  0  0
 33 32  1  0  0  0  0
 34 30  1  0  0  0  0
 35 34  1  1  0  0  0
 17 35  1  0  0  0  0
 35 31  1  0  0  0  0
 36  4  1  0  0  0  0
M  END
> <ID>
SCHEMBL21136577

> <InChIKey>
KVPZERGGCZNOHW-CVDOQZOSSA-N

> <MW>
496.699

> <Series_Name>
Series_16

$$$$
SCHEMBL21136581
  Mrv1719007171904002D 0   0.00000     0.00000     0

 38 45  0  0  1  0              1 V2000 
    0.8038   -2.7393    0.0000 C   0  0  0  0  0  0  0  0  0  0  0  0
    1.2736   -3.0408    0.0000 C   0  0  0  0  0  0  0  0  0  0  0  0
    2.0473   -2.6380    0.0000 C   0  0  0  0  0  0  0  0  0  0  0  0
    2.7293   -3.0149    0.0000 N   0  0  0  0  0  0  0  0  0  0  0  0
    1.8362   -3.6441    0.0000 C   0  0  0  0  0  0  0  0  0  0  0  0
    1.2853   -4.2208    0.0000 O   0  0  0  0  0  0  0  0  0  0  0  0
    0.7165   -3.6354    0.0000 C   0  0  0  0  0  0  0  0  0  0  0  0
    2.8959   -3.8956    0.0000 C   0  0  0  0  0  0  0  0  0  0  0  0
    4.1336   -3.0103    0.0000 C   0  0  0  0  0  0  0  0  0  0  0  0
    3.4155   -2.6181    0.0000 C   0  0  0  0  0  0  0  0  0  0  0  0
    3.4156   -1.7931    0.0000 C   0  0  0  0  0  0  0  0  0  0  0  0
    4.1768   -1.3686    0.0000 C   0  0  0  0  0  0  0  0  0  0  0  0
    4.8319   -1.7747    0.0000 C   0  0  0  0  0  0  0  0  0  0  0  0
    5.4921   -1.2561    0.0000 C   0  0  0  0  0  0  0  0  0  0  0  0
    6.2964   -1.4243    0.0000 C   0  0  0  0  0  0  0  0  0  0  0  0
    6.7467   -0.7330    0.0000 C   0  0  0  0  0  0  0  0  0  0  0  0
    7.5690   -0.8197    0.0000 C   0  0  0  0  0  0  0  0  0  0  0  0
    7.9512   -1.5180    0.0000 C   0  0  0  0  0  0  0  0  0  0  0  0
    8.5845   -0.8648    0.0000 C   0  0  0  0  0  0  0  0  0  0  0  0
    8.7276   -1.7972    0.0000 C   0  0  1  0  0  0  0  0  0  0  0  0
    9.4196   -0.5227    0.0000 C   0  0  0  0  0  0  0  0  0  0  0  0
    9.4808   -1.3261    0.0000 C   0  0  0  0  0  0  0  0  0  0  0  0
   10.1080   -0.1356    0.0000 C   0  0  0  0  0  0  0  0  0  0  0  0
   10.8326   -0.5209    0.0000 C   0  0  0  0  0  0  0  0  0  0  0  0
   11.6082   -0.1597    0.0000 C   0  0  0  0  0  0  0  0  0  0  0  0
   12.2396   -0.5408    0.0000 C   0  0  0  0  0  0  0  0  0  0  0  0
   12.2659   -1.3646    0.0000 N   0  0  0  0  0  0  0  0  0  0  0  0
   10.8495   -1.4017    0.0000 C   0  0  0  0  0  0  0  0  0  0  0  0
   11.5041   -1.7931    0.0000 C   0  0  0  0  0  0  0  0  0  0  0  0
   10.1036   -1.7998    0.0000 C   0  0  0  0  0  0  0  0  0  0  0  0
    8.7211   -2.6327    0.0000 C   0  0  0  0  0  0  0  0  0  0  0  0
    7.9213   -2.8959    0.0000 C   0  0  0  0  0  0  0  0  0  0  0  0
    7.4674   -2.2518    0.0000 C   0  0  0  0  0  0  0  0  0  0  0  0
    6.6085   -2.1507    0.0000 C   0  0  1  0  0  0  0  0  0  0  0  0
    6.2976   -2.9459    0.0000 C   0  0  0  0  0  0  0  0  0  0  0  0
    5.4824   -3.1207    0.0000 C   0  0  0  0  0  0  0  0  0  0  0  0
    4.8287   -2.6206    0.0000 C   0  0  1  0  0  0  0  0  0  0  0  0
    5.6331   -2.1263    0.0000 O   0  0  0  0  0  0  0  0  0  0  0  0
  1  2  1  0  0  0  0
  2  3  1  0  0  0  0
  2  5  1  0  0  0  0
  2  7  1  0  0  0  0
  3  4  1  0  0  0  0
  4  8  1  0  0  0  0
  4 10  1  0  0  0  0
  5  6  1  0  0  0  0
  6  7  1  0  0  0  0
  9 10  1  0  0  0  0
 37  9  1  0  0  0  0
 10 11  1  0  0  0  0
 11 12  1  0  0  0  0
 12 13  1  0  0  0  0
 13 14  2  0  0  0  0
 14 15  1  0  0  0  0
 15 16  2  0  0  0  0
 17 16  1  0  0  0  0
 18 19  1  0  0  0  0
 20 18  1  0  0  0  0
 18 33  1  0  0  0  0
 18 17  1  0  0  0  0
 20 22  1  1  0  0  0
 20 31  1  0  0  0  0
 21 22  1  0  0  0  0
 21 23  2  0  0  0  0
 22 30  2  0  0  0  0
 23 24  1  0  0  0  0
 24 28  2  0  0  0  0
 25 24  1  0  0  0  0
 25 26  2  0  0  0  0
 27 26  1  0  0  0  0
 28 29  1  0  0  0  0
 29 27  2  0  0  0  0
 30 28  1  0  0  0  0
 32 33  1  0  0  0  0
 32 31  1  0  0  0  0
 34 35  1  0  0  0  0
 34 15  1  0  0  0  0
 34 33  1  0  0  0  0
 34 38  1  6  0  0  0
 35 36  1  0  0  0  0
 37 36  1  0  0  0  0
 37 38  1  6  0  0  0
 37 13  1  0  0  0  0
M  END
> <ID>
SCHEMBL21136581

> <InChIKey>
NFLIEBCOFSZECV-ZGBJLMPYSA-N

> <MW>
510.722

> <Series_Name>
Series_16

$$$$
SCHEMBL21136622
  Mrv1719007171904032D 0   0.00000     0.00000     0

 39 46  0  0  1  0              1 V2000 
    1.4042   -3.2482    0.0000 C   0  0  0  0  0  0  0  0  0  0  0  0
    0.3781   -3.1639    0.0000 O   0  0  0  0  0  0  0  0  0  0  0  0
    1.9352   -2.6313    0.0000 C   0  0  0  0  0  0  0  0  0  0  0  0
    2.7009   -2.9632    0.0000 N   0  0  0  0  0  0  0  0  0  0  0  0
    1.8052   -3.9563    0.0000 C   0  0  0  0  0  0  0  0  0  0  0  0
    2.6321   -3.7818    0.0000 C   0  0  1  0  0  0  0  0  0  0  0  0
    4.8713   -2.5525    0.0000 C   0  0  1  0  0  0  0  0  0  0  0  0
    4.1322   -2.9515    0.0000 C   0  0  0  0  0  0  0  0  0  0  0  0
    3.4209   -2.5545    0.0000 C   0  0  0  0  0  0  0  0  0  0  0  0
    3.4311   -1.7324    0.0000 C   0  0  0  0  0  0  0  0  0  0  0  0
    4.1408   -1.3355    0.0000 C   0  0  0  0  0  0  0  0  0  0  0  0
    4.8638   -1.7243    0.0000 C   0  0  0  0  0  0  0  0  0  0  0  0
    5.5359   -1.2411    0.0000 C   0  0  0  0  0  0  0  0  0  0  0  0
    6.3446   -1.4054    0.0000 C   0  0  0  0  0  0  0  0  0  0  0  0
    6.7990   -0.7323    0.0000 C   0  0  0  0  0  0  0  0  0  0  0  0
    7.5948   -0.7897    0.0000 C   0  0  0  0  0  0  0  0  0  0  0  0
    8.0247   -1.5163    0.0000 C   0  0  2  0  0  0  0  0  0  0  0  0
    8.6118   -0.8566    0.0000 C   0  0  0  0  0  0  0  0  0  0  0  0
    9.5166   -0.5194    0.0000 C   0  0  0  0  0  0  0  0  0  0  0  0
    9.4984   -1.3501    0.0000 C   0  0  0  0  0  0  0  0  0  0  0  0
   10.2164   -0.1069    0.0000 C   0  0  0  0  0  0  0  0  0  0  0  0
   10.9375   -0.5234    0.0000 C   0  0  0  0  0  0  0  0  0  0  0  0
   11.6826   -0.1080    0.0000 C   0  0  0  0  0  0  0  0  0  0  0  0
   12.3776   -1.3427    0.0000 N   0  0  0  0  0  0  0  0  0  0  0  0
   12.3912   -0.5356    0.0000 C   0  0  0  0  0  0  0  0  0  0  0  0
   10.9344   -1.3536    0.0000 C   0  0  0  0  0  0  0  0  0  0  0  0
   11.6936   -1.7579    0.0000 C   0  0  0  0  0  0  0  0  0  0  0  0
   10.2133   -1.7564    0.0000 C   0  0  0  0  0  0  0  0  0  0  0  0
    8.7761   -1.7451    0.0000 C   0  0  0  0  0  0  0  0  0  0  0  0
    6.6749   -2.1504    0.0000 C   0  0  2  0  0  0  0  0  0  0  0  0
    6.3304   -2.8891    0.0000 C   0  0  0  0  0  0  0  0  0  0  0  0
    5.5273   -3.0771    0.0000 C   0  0  0  0  0  0  0  0  0  0  0  0
    8.7649   -2.5835    0.0000 C   0  0  0  0  0  0  0  0  0  0  0  0
    7.5409   -2.2024    0.0000 C   0  0  2  0  0  0  0  0  0  0  0  0
    8.0032   -2.8449    0.0000 C   0  0  0  0  0  0  0  0  0  0  0  0
    3.1187   -4.0374    0.0000 C   0  0  0  0  0  0  0  0  0  0  0  0
    3.1406   -4.5865    0.0000 O   0  0  0  0  0  0  0  0  0  0  0  0
    3.5832   -3.7439    0.0000 O   0  0  0  0  0  0  0  0  0  0  0  0
    5.6641   -2.1144    0.0000 O   0  0  0  0  0  0  0  0  0  0  0  0
  1  2  1  0  0  0  0
  1  3  1  0  0  0  0
  1  5  1  0  0  0  0
  3  4  1  0  0  0  0
  6  5  1  0  0  0  0
  6 36  1  6  0  0  0
  6  4  1  0  0  0  0
  7  8  1  0  0  0  0
  7 12  1  0  0  0  0
  7 39  1  6  0  0  0
  9  4  1  0  0  0  0
  9 10  1  0  0  0  0
  9  8  1  0  0  0  0
 10 11  1  0  0  0  0
 11 12  1  0  0  0  0
 12 13  2  0  0  0  0
 13 14  1  0  0  0  0
 14 15  2  0  0  0  0
 15 16  1  0  0  0  0
 17 16  1  0  0  0  0
 17 18  1  1  0  0  0
 17 34  1  0  0  0  0
 19 20  1  0  0  0  0
 19 21  2  0  0  0  0
 20 28  2  0  0  0  0
 22 21  1  0  0  0  0
 22 23  1  0  0  0  0
 23 25  2  0  0  0  0
 24 25  1  0  0  0  0
 26 22  2  0  0  0  0
 26 27  1  0  0  0  0
 27 24  2  0  0  0  0
 28 26  1  0  0  0  0
 29 20  1  0  0  0  0
 17 29  1  0  0  0  0
 30 31  1  0  0  0  0
 30 14  1  0  0  0  0
 30 39  1  6  0  0  0
 31 32  1  0  0  0  0
  7 32  1  0  0  0  0
 33 29  1  0  0  0  0
 34 35  1  1  0  0  0
 34 30  1  0  0  0  0
 35 33  1  0  0  0  0
 36 37  2  0  0  0  0
 36 38  1  0  0  0  0
M  END
> <ID>
SCHEMBL21136622

> <InChIKey>
ILQBCFGXKUEURP-SHFVEMEASA-N

> <MW>
526.677

> <Series_Name>
Series_16

$$$$
SCHEMBL21136629
  Mrv1719007171904042D 0   0.00000     0.00000     0

 31 37  0  0  1  0              1 V2000 
    2.4695   -2.9133    0.0000 C   0  0  0  0  0  0  0  0  0  0  0  0
    1.7138   -2.5424    0.0000 C   0  0  0  0  0  0  0  0  0  0  0  0
    0.7737   -2.9402    0.0000 O   0  0  0  0  0  0  0  0  0  0  0  0
    4.6385   -1.3778    0.0000 C   0  0  0  0  0  0  0  0  0  0  0  0
    5.0903   -0.7038    0.0000 C   0  0  0  0  0  0  0  0  0  0  0  0
    5.9492   -0.7710    0.0000 C   0  0  0  0  0  0  0  0  0  0  0  0
    6.9056   -0.8446    0.0000 C   0  0  0  0  0  0  0  0  0  0  0  0
    6.3282   -1.4712    0.0000 C   0  0  2  0  0  0  0  0  0  0  0  0
    7.0732   -1.7293    0.0000 C   0  0  0  0  0  0  0  0  0  0  0  0
    7.8417   -0.4995    0.0000 C   0  0  0  0  0  0  0  0  0  0  0  0
    8.5417   -0.0980    0.0000 C   0  0  0  0  0  0  0  0  0  0  0  0
    9.9968   -0.1056    0.0000 C   0  0  0  0  0  0  0  0  0  0  0  0
    9.2653   -0.4992    0.0000 C   0  0  0  0  0  0  0  0  0  0  0  0
   10.7120   -0.5061    0.0000 C   0  0  0  0  0  0  0  0  0  0  0  0
   10.6904   -1.3282    0.0000 N   0  0  0  0  0  0  0  0  0  0  0  0
    9.2695   -1.3192    0.0000 C   0  0  0  0  0  0  0  0  0  0  0  0
    9.9924   -1.7198    0.0000 C   0  0  0  0  0  0  0  0  0  0  0  0
    8.5373   -1.7263    0.0000 C   0  0  0  0  0  0  0  0  0  0  0  0
    7.8218   -1.3218    0.0000 C   0  0  0  0  0  0  0  0  0  0  0  0
    3.8106   -3.0391    0.0000 C   0  0  0  0  0  0  0  0  0  0  0  0
    3.1431   -2.5163    0.0000 C   0  0  2  0  0  0  0  0  0  0  0  0
    4.6329   -2.8426    0.0000 C   0  0  0  0  0  0  0  0  0  0  0  0
    4.9830   -2.1073    0.0000 C   0  0  2  0  0  0  0  0  0  0  0  0
    3.8114   -1.1976    0.0000 C   0  0  0  0  0  0  0  0  0  0  0  0
    3.1555   -1.6981    0.0000 C   0  0  0  0  0  0  0  0  0  0  0  0
    2.4372   -1.3049    0.0000 C   0  0  0  0  0  0  0  0  0  0  0  0
    1.7120   -1.7174    0.0000 C   0  0  0  0  0  0  0  0  0  0  0  0
    7.0659   -2.5453    0.0000 C   0  0  0  0  0  0  0  0  0  0  0  0
    5.8437   -2.1638    0.0000 C   0  0  2  0  0  0  0  0  0  0  0  0
    6.3161   -2.8112    0.0000 C   0  0  0  0  0  0  0  0  0  0  0  0
    3.9460   -2.0762    0.0000 O   0  0  0  0  0  0  0  0  0  0  0  0
  1  2  1  0  0  0  0
 21  1  1  0  0  0  0
  2  3  1  0  0  0  0
  4  5  2  0  0  0  0
  5  6  1  0  0  0  0
  8  7  1  1  0  0  0
  8  9  1  0  0  0  0
  8 29  1  0  0  0  0
  8  6  1  0  0  0  0
  9 19  1  0  0  0  0
 10 11  2  0  0  0  0
 10 19  1  0  0  0  0
 11 13  1  0  0  0  0
 12 13  1  0  0  0  0
 12 14  2  0  0  0  0
 13 16  2  0  0  0  0
 15 14  1  0  0  0  0
 16 17  1  0  0  0  0
 17 15  2  0  0  0  0
 18 16  1  0  0  0  0
 19 18  2  0  0  0  0
 20 22  1  0  0  0  0
 21 20  1  0  0  0  0
 21 25  1  0  0  0  0
 21 31  1  6  0  0  0
 23 22  1  0  0  0  0
 23  4  1  0  0  0  0
 29 23  1  0  0  0  0
 23 31  1  6  0  0  0
 24  4  1  0  0  0  0
 25 24  2  0  0  0  0
 26 25  1  0  0  0  0
 26 27  1  0  0  0  0
 27  2  1  0  0  0  0
 28  9  1  0  0  0  0
 29 30  1  1  0  0  0
 30 28  1  0  0  0  0
M  END
> <ID>
SCHEMBL21136629

> <InChIKey>
MQTJIRVJLIFLLF-JKXUJLOOSA-N

> <MW>
413.561

> <Series_Name>
Series_16

$$$$
SCHEMBL21136631
  Mrv1719007171904052D 0   0.00000     0.00000     0

 34 41  0  0  1  0              1 V2000 
    0.1234   -3.5672    0.0000 C   0  0  0  0  0  0  0  0  0  0  0  0
    0.3127   -2.7903    0.0000 C   0  0  0  0  0  0  0  0  0  0  0  0
    1.0653   -2.9941    0.0000 N   0  0  0  0  0  0  0  0  0  0  0  0
    0.8636   -3.7828    0.0000 C   0  0  0  0  0  0  0  0  0  0  0  0
    3.8139   -3.0683    0.0000 C   0  0  0  0  0  0  0  0  0  0  0  0
    3.1753   -2.5749    0.0000 C   0  0  1  0  0  0  0  0  0  0  0  0
    2.5094   -2.9803    0.0000 C   0  0  0  0  0  0  0  0  0  0  0  0
    1.7660   -2.5907    0.0000 C   0  0  0  0  0  0  0  0  0  0  0  0
    1.7806   -1.7631    0.0000 C   0  0  0  0  0  0  0  0  0  0  0  0
    2.5123   -1.3702    0.0000 C   0  0  0  0  0  0  0  0  0  0  0  0
    3.1848   -1.7235    0.0000 C   0  0  0  0  0  0  0  0  0  0  0  0
    3.8151   -1.2401    0.0000 C   0  0  0  0  0  0  0  0  0  0  0  0
    4.6405   -1.4169    0.0000 C   0  0  0  0  0  0  0  0  0  0  0  0
    5.1193   -0.7169    0.0000 C   0  0  0  0  0  0  0  0  0  0  0  0
    5.8804   -0.7691    0.0000 C   0  0  0  0  0  0  0  0  0  0  0  0
    6.2970   -1.5026    0.0000 C   0  0  1  0  0  0  0  0  0  0  0  0
    6.8520   -0.8710    0.0000 C   0  0  0  0  0  0  0  0  0  0  0  0
    7.0219   -1.7602    0.0000 C   0  0  0  0  0  0  0  0  0  0  0  0
    7.7172   -1.3538    0.0000 C   0  0  0  0  0  0  0  0  0  0  0  0
    7.7392   -0.5133    0.0000 C   0  0  0  0  0  0  0  0  0  0  0  0
    8.4858   -0.1405    0.0000 C   0  0  0  0  0  0  0  0  0  0  0  0
    9.1461   -0.5097    0.0000 C   0  0  0  0  0  0  0  0  0  0  0  0
    9.8827   -0.1331    0.0000 C   0  0  0  0  0  0  0  0  0  0  0  0
   10.5402   -0.5073    0.0000 C   0  0  0  0  0  0  0  0  0  0  0  0
   10.5372   -1.3532    0.0000 N   0  0  0  0  0  0  0  0  0  0  0  0
    9.1445   -1.3428    0.0000 C   0  0  0  0  0  0  0  0  0  0  0  0
    9.8390   -1.7571    0.0000 C   0  0  0  0  0  0  0  0  0  0  0  0
    8.4447   -1.7622    0.0000 C   0  0  0  0  0  0  0  0  0  0  0  0
    7.0186   -2.6135    0.0000 C   0  0  0  0  0  0  0  0  0  0  0  0
    6.2660   -2.8606    0.0000 C   0  0  0  0  0  0  0  0  0  0  0  0
    5.7975   -2.2079    0.0000 C   0  0  1  0  0  0  0  0  0  0  0  0
    4.6383   -2.8922    0.0000 C   0  0  0  0  0  0  0  0  0  0  0  0
    4.9740   -2.1592    0.0000 C   0  0  1  0  0  0  0  0  0  0  0  0
    4.1434   -2.0783    0.0000 C   0  0  0  0  0  0  0  0  0  0  0  0
  1  2  1  0  0  0  0
  2  3  1  0  0  0  0
  3  8  1  0  0  0  0
  4  3  1  0  0  0  0
  4  1  1  0  0  0  0
  6  5  1  0  0  0  0
  6 11  1  0  0  0  0
  6 34  1  6  0  0  0
  7  8  1  0  0  0  0
  6  7  1  0  0  0  0
  9 10  1  0  0  0  0
  9  8  1  0  0  0  0
 10 11  1  0  0  0  0
 11 12  2  0  0  0  0
 12 13  1  0  0  0  0
 13 14  2  0  0  0  0
 14 15  1  0  0  0  0
 16 15  1  0  0  0  0
 16 17  1  6  0  0  0
 16 18  1  0  0  0  0
 18 19  1  0  0  0  0
 18 29  1  0  0  0  0
 19 28  2  0  0  0  0
 20 19  1  0  0  0  0
 20 21  2  0  0  0  0
 22 23  1  0  0  0  0
 22 21  1  0  0  0  0
 23 24  2  0  0  0  0
 25 24  1  0  0  0  0
 26 22  2  0  0  0  0
 26 27  1  0  0  0  0
 27 25  2  0  0  0  0
 28 26  1  0  0  0  0
 31 30  1  1  0  0  0
 30 29  1  0  0  0  0
 16 31  1  0  0  0  0
 32  5  1  0  0  0  0
 33 32  1  0  0  0  0
 31 33  1  0  0  0  0
 33 34  1  6  0  0  0
 33 13  1  0  0  0  0
M  END
> <ID>
SCHEMBL21136631

> <InChIKey>
LXTWZSJXKSBHDB-ARQRFHOVSA-N

> <MW>
450.67

> <Series_Name>
Series_16

$$$$
SCHEMBL21136635
  Mrv1719007171904052D 0   0.00000     0.00000     0

 30 36  0  0  1  0              1 V2000 
    2.6071   -3.1349    0.0000 C   0  0  0  0  0  0  0  0  0  0  0  0
    1.9279   -2.7013    0.0000 C   0  0  0  0  0  0  0  0  0  0  0  0
    1.9287   -1.8282    0.0000 C   0  0  0  0  0  0  0  0  0  0  0  0
    2.6034   -1.3951    0.0000 C   0  0  0  0  0  0  0  0  0  0  0  0
    3.3107   -1.8247    0.0000 C   0  0  0  0  0  0  0  0  0  0  0  0
    3.9300   -1.2709    0.0000 C   0  0  0  0  0  0  0  0  0  0  0  0
    4.7096   -1.4666    0.0000 C   0  0  0  0  0  0  0  0  0  0  0  0
    5.1705   -0.7323    0.0000 C   0  0  0  0  0  0  0  0  0  0  0  0
    6.8988   -0.9133    0.0000 C   0  0  0  0  0  0  0  0  0  0  0  0
    6.3201   -1.5546    0.0000 C   0  0  0  0  0  0  0  0  0  0  0  0
    7.0826   -1.8402    0.0000 C   0  0  1  0  0  0  0  0  0  0  0  0
    9.8222   -0.0989    0.0000 C   0  0  0  0  0  0  0  0  0  0  0  0
    9.1264   -0.5375    0.0000 C   0  0  0  0  0  0  0  0  0  0  0  0
   10.5065   -0.5488    0.0000 C   0  0  0  0  0  0  0  0  0  0  0  0
   10.4853   -1.4248    0.0000 N   0  0  0  0  0  0  0  0  0  0  0  0
    9.1303   -1.4128    0.0000 C   0  0  0  0  0  0  0  0  0  0  0  0
    9.7803   -1.8480    0.0000 C   0  0  0  0  0  0  0  0  0  0  0  0
    8.4512   -1.8480    0.0000 C   0  0  0  0  0  0  0  0  0  0  0  0
    7.8273   -1.3611    0.0000 C   0  0  0  0  0  0  0  0  0  0  0  0
    5.0457   -2.2641    0.0000 C   0  0  2  0  0  0  0  0  0  0  0  0
    4.7127   -3.0489    0.0000 C   0  0  0  0  0  0  0  0  0  0  0  0
    3.9398   -3.2445    0.0000 C   0  0  0  0  0  0  0  0  0  0  0  0
    3.3190   -2.6952    0.0000 C   0  0  1  0  0  0  0  0  0  0  0  0
    7.0595   -2.7162    0.0000 C   0  0  0  0  0  0  0  0  0  0  0  0
    5.8573   -2.3174    0.0000 C   0  0  2  0  0  0  0  0  0  0  0  0
    6.3081   -3.0084    0.0000 C   0  0  0  0  0  0  0  0  0  0  0  0
    5.9591   -0.8182    0.0000 C   0  0  0  0  0  0  0  0  0  0  0  0
    8.4203   -0.1054    0.0000 C   0  0  0  0  0  0  0  0  0  0  0  0
    7.7535   -0.5525    0.0000 C   0  0  0  0  0  0  0  0  0  0  0  0
    4.0553   -2.2286    0.0000 O   0  0  0  0  0  0  0  0  0  0  0  0
  1  2  1  0  0  0  0
  2  3  1  0  0  0  0
  4  5  1  0  0  0  0
  4  3  1  0  0  0  0
  5  6  2  0  0  0  0
  6  7  1  0  0  0  0
  7  8  2  0  0  0  0
  8 27  1  0  0  0  0
  9 10  1  0  0  0  0
 11 10  1  0  0  0  0
 10 27  1  0  0  0  0
 11 19  1  1  0  0  0
 12 13  1  0  0  0  0
 12 14  2  0  0  0  0
 13 16  2  0  0  0  0
 15 14  1  0  0  0  0
 16 17  1  0  0  0  0
 17 15  2  0  0  0  0
 18 16  1  0  0  0  0
 19 18  2  0  0  0  0
 19 29  1  0  0  0  0
 20 21  1  0  0  0  0
 20  7  1  0  0  0  0
 25 20  1  0  0  0  0
 20 30  1  6  0  0  0
 22 21  1  0  0  0  0
 23  1  1  0  0  0  0
 23 30  1  6  0  0  0
 23 22  1  0  0  0  0
 23  5  1  0  0  0  0
 11 24  1  0  0  0  0
 25 26  1  1  0  0  0
 25 10  1  0  0  0  0
 26 24  1  0  0  0  0
 28 13  1  0  0  0  0
 29 28  2  0  0  0  0
M  END
> <ID>
SCHEMBL21136635

> <InChIKey>
FSSCYKYNRUKXIK-LALOISHVSA-N

> <MW>
397.562

> <Series_Name>
Series_16

$$$$
SCHEMBL21136637
  Mrv1719007171904052D 0   0.00000     0.00000     0

 37 42  0  0  0  0              1 V2000 
    0.5689    2.7223    0.0000 O   0  0  0  0  0  0  0  0  0  0  0  0
    4.8952    2.9751    0.0000 S   0  0  0  0  0  0  0  0  0  0  0  0
    2.5612    1.7038    0.0000 C   0  0  0  0  0  0  0  0  0  0  0  0
    6.3528    3.2679    0.0000 C   0  0  2  0  0  0  0  0  0  0  0  0
   10.4061    4.9962    0.0000 C   0  0  0  0  0  0  0  0  0  0  0  0
    9.7406    5.4311    0.0000 C   0  0  0  0  0  0  0  0  0  0  0  0
    9.0351    4.9917    0.0000 C   0  0  0  0  0  0  0  0  0  0  0  0
    9.0128    4.1221    0.0000 C   0  0  0  0  0  0  0  0  0  0  0  0
   11.7772    4.9917    0.0000 C   0  0  0  0  0  0  0  0  0  0  0  0
   11.1116    5.4311    0.0000 C   0  0  0  0  0  0  0  0  0  0  0  0
   10.3972    4.1221    0.0000 C   0  0  0  0  0  0  0  0  0  0  0  0
    7.6174    3.9601    0.0000 C   0  0  0  0  0  0  0  0  0  0  0  0
    7.2514    4.7255    0.0000 C   0  0  0  0  0  0  0  0  0  0  0  0
    6.4659    4.7921    0.0000 C   0  0  0  0  0  0  0  0  0  0  0  0
    6.0045    4.0599    0.0000 C   0  0  0  0  0  0  0  0  0  0  0  0
    5.2413    4.2596    0.0000 C   0  0  0  0  0  0  0  0  0  0  0  0
    4.6157    3.7050    0.0000 C   0  0  0  0  0  0  0  0  0  0  0  0
    3.9235    4.1398    0.0000 C   0  0  0  0  0  0  0  0  0  0  0  0
    3.2446    3.7005    0.0000 C   0  0  0  0  0  0  0  0  0  0  0  0
    3.2314    2.8176    0.0000 C   0  0  0  0  0  0  0  0  0  0  0  0
   11.0850    3.6873    0.0000 C   0  0  0  0  0  0  0  0  0  0  0  0
    9.7139    3.6873    0.0000 C   0  0  0  0  0  0  0  0  0  0  0  0
    8.3518    3.6917    0.0000 C   0  0  0  0  0  0  0  0  0  0  0  0
    8.3429    2.8087    0.0000 C   0  0  0  0  0  0  0  0  0  0  0  0
    7.6108    2.5158    0.0000 C   0  0  0  0  0  0  0  0  0  0  0  0
    6.0000    2.4626    0.0000 C   0  0  0  0  0  0  0  0  0  0  0  0
    5.2945    2.2763    0.0000 C   0  0  0  0  0  0  0  0  0  0  0  0
    3.9502    2.3961    0.0000 C   0  0  0  0  0  0  0  0  0  0  0  0
    1.8470    2.8087    0.0000 C   0  0  0  0  0  0  0  0  0  0  0  0
    1.1414    2.3961    0.0000 C   0  0  0  0  0  0  0  0  0  0  0  0
    7.1094    3.1637    0.0000 C   0  0  0  0  0  0  0  0  0  0  0  0
    4.7044    2.8782    0.0000 C   0  0  0  0  0  0  0  0  0  0  0  0
    5.2879    3.2413    0.0000 O   0  0  0  0  0  0  0  0  0  0  0  0
    2.5524    2.3628    0.0000 N   0  0  0  0  0  0  0  0  0  0  0  0
   11.7838    4.1065    0.0000 N   0  0  0  0  0  0  0  0  0  0  0  0
    8.0606    4.4478    0.0000 C   0  0  0  0  0  0  0  0  0  0  0  0
   -0.0037    3.0486    0.0000 C   0  0  0  0  0  0  0  0  0  0  0  0
  5  6  1  0  0  0  0
  6  7  2  0  0  0  0
  7  8  1  0  0  0  0
  9 10  2  0  0  0  0
  5 10  1  0  0  0  0
  5 11  2  0  0  0  0
 12 13  1  0  0  0  0
 13 14  1  0  0  0  0
 14 15  2  0  0  0  0
  4 15  1  0  0  0  0
 15 16  1  0  0  0  0
 16 17  2  0  0  0  0
 17 18  1  0  0  0  0
 18 19  1  0  0  0  0
 19 20  1  0  0  0  0
 11 21  1  0  0  0  0
 11 22  1  0  0  0  0
  8 22  2  0  0  0  0
  8 23  1  0  0  0  0
 12 23  1  0  0  0  0
 23 24  1  0  0  0  0
 24 25  1  0  0  0  0
  4 26  1  0  0  0  0
 26 27  1  0  0  0  0
 20 28  1  0  0  0  0
 29 30  1  0  0  0  0
 34  3  1  0  0  0  0
 12 31  1  0  0  0  0
 25 31  1  0  0  0  0
  4 31  1  0  0  0  0
 17 32  1  0  0  0  0
 27 32  1  0  0  0  0
 28 32  1  0  0  0  0
  2 33  1  0  0  0  0
  4 33  1  6  0  0  0
 20 34  1  0  0  0  0
 29 34  1  0  0  0  0
  9 35  1  0  0  0  0
 21 35  2  0  0  0  0
 12 36  1  0  0  0  0
 30  1  1  0  0  0  0
  1 37  1  0  0  0  0
M  END
> <ID>
SCHEMBL21136637

> <InChIKey>
VXWQTWJQMMMZOV-XRXTYQLVSA-N

> <MW>
518.76

> <Series_Name>
Series_16

$$$$
SCHEMBL21136643
  Mrv1719007171904052D 0   0.00000     0.00000     0

 35 41  0  0  1  0              1 V2000 
    4.0991   -2.5469    0.0000 C   0  0  1  0  0  0  0  0  0  0  0  0
    3.3555   -2.9704    0.0000 C   0  0  0  0  0  0  0  0  0  0  0  0
    2.6812   -2.5569    0.0000 C   0  0  1  0  0  0  0  0  0  0  0  0
    1.9390   -3.1712    0.0000 N   0  0  0  0  0  0  0  0  0  0  0  0
    2.6887   -1.7380    0.0000 C   0  0  0  0  0  0  0  0  0  0  0  0
    3.3765   -1.3067    0.0000 C   0  0  0  0  0  0  0  0  0  0  0  0
    4.1102   -1.7277    0.0000 C   0  0  0  0  0  0  0  0  0  0  0  0
    4.7615   -1.2222    0.0000 C   0  0  0  0  0  0  0  0  0  0  0  0
    5.5334   -1.3901    0.0000 C   0  0  0  0  0  0  0  0  0  0  0  0
    6.0199   -0.7082    0.0000 C   0  0  0  0  0  0  0  0  0  0  0  0
    6.8208   -0.7894    0.0000 C   0  0  0  0  0  0  0  0  0  0  0  0
    7.1988   -1.4855    0.0000 C   0  0  0  0  0  0  0  0  0  0  0  0
    7.8185   -0.8506    0.0000 C   0  0  0  0  0  0  0  0  0  0  0  0
    7.9657   -1.7513    0.0000 C   0  0  0  0  0  0  0  0  0  0  0  0
    8.6648   -0.5089    0.0000 C   0  0  0  0  0  0  0  0  0  0  0  0
    8.6634   -1.3436    0.0000 C   0  0  0  0  0  0  0  0  0  0  0  0
    9.3509   -0.1014    0.0000 C   0  0  0  0  0  0  0  0  0  0  0  0
   10.1034   -0.5017    0.0000 C   0  0  0  0  0  0  0  0  0  0  0  0
   10.7905   -0.1063    0.0000 C   0  0  0  0  0  0  0  0  0  0  0  0
   11.4720   -0.5004    0.0000 C   0  0  0  0  0  0  0  0  0  0  0  0
   11.4713   -1.3260    0.0000 N   0  0  0  0  0  0  0  0  0  0  0  0
   10.0923   -1.3304    0.0000 C   0  0  0  0  0  0  0  0  0  0  0  0
   10.7961   -1.7450    0.0000 C   0  0  0  0  0  0  0  0  0  0  0  0
    9.3554   -1.7475    0.0000 C   0  0  0  0  0  0  0  0  0  0  0  0
    5.5105   -2.9015    0.0000 C   0  0  0  0  0  0  0  0  0  0  0  0
    5.8940   -2.1383    0.0000 C   0  0  2  0  0  0  0  0  0  0  0  0
    4.7504   -3.0718    0.0000 C   0  0  0  0  0  0  0  0  0  0  0  0
    7.1841   -2.8647    0.0000 C   0  0  0  0  0  0  0  0  0  0  0  0
    7.9556   -2.5675    0.0000 C   0  0  0  0  0  0  0  0  0  0  0  0
    6.7245   -2.1887    0.0000 C   0  0  2  0  0  0  0  0  0  0  0  0
    0.3815   -2.9898    0.0000 C   0  0  0  0  0  0  0  0  0  0  0  0
    1.2172   -2.5558    0.0000 C   0  0  0  0  0  0  0  0  0  0  0  0
    0.3815   -2.1704    0.0000 C   0  0  0  0  0  0  0  0  0  0  0  0
    1.4073   -1.7513    0.0000 C   0  0  0  0  0  0  0  0  0  0  0  0
    4.8787   -2.1016    0.0000 O   0  0  0  0  0  0  0  0  0  0  0  0
  1  2  1  0  0  0  0
  1 27  1  0  0  0  0
  1 35  1  6  0  0  0
  1  7  1  0  0  0  0
  3  2  1  0  0  0  0
  3  4  1  1  0  0  0
  4 32  1  0  0  0  0
  5  6  1  0  0  0  0
  3  5  1  0  0  0  0
  6  7  1  0  0  0  0
  7  8  2  0  0  0  0
  8  9  1  0  0  0  0
  9 10  2  0  0  0  0
 10 11  1  0  0  0  0
 12 13  1  0  0  0  0
 12 14  1  0  0  0  0
 12 11  1  0  0  0  0
 14 16  1  0  0  0  0
 15 16  1  0  0  0  0
 15 17  2  0  0  0  0
 16 24  2  0  0  0  0
 18 17  1  0  0  0  0
 18 19  1  0  0  0  0
 19 20  2  0  0  0  0
 21 20  1  0  0  0  0
 22 18  2  0  0  0  0
 22 23  1  0  0  0  0
 23 21  2  0  0  0  0
 24 22  1  0  0  0  0
 26 25  1  0  0  0  0
 26  9  1  0  0  0  0
 30 26  1  0  0  0  0
 26 35  1  6  0  0  0
 27 25  1  0  0  0  0
 28 29  1  0  0  0  0
 29 14  1  0  0  0  0
 30 28  1  1  0  0  0
 30 12  1  0  0  0  0
 31 32  1  0  0  0  0
 33 32  1  0  0  0  0
 34 32  1  0  0  0  0
M  END
> <ID>
SCHEMBL21136643

> <InChIKey>
JRIDIRLYPURCNI-LEYKFLQZSA-N

> <MW>
468.685

> <Series_Name>
Series_16

$$$$
SCHEMBL21136645
  Mrv1719007171904052D 0   0.00000     0.00000     0

 35 41  0  0  1  0              1 V2000 
    4.0823   -2.5950    0.0000 C   0  0  1  0  0  0  0  0  0  0  0  0
    3.4102   -3.0067    0.0000 C   0  0  0  0  0  0  0  0  0  0  0  0
    2.6908   -2.5877    0.0000 C   0  0  1  0  0  0  0  0  0  0  0  0
    2.6824   -1.7665    0.0000 C   0  0  0  0  0  0  0  0  0  0  0  0
    3.3777   -1.3332    0.0000 C   0  0  0  0  0  0  0  0  0  0  0  0
    4.0887   -1.7553    0.0000 C   0  0  0  0  0  0  0  0  0  0  0  0
    4.7382   -1.2300    0.0000 C   0  0  0  0  0  0  0  0  0  0  0  0
    5.5050   -1.4024    0.0000 C   0  0  0  0  0  0  0  0  0  0  0  0
    6.7869   -0.7998    0.0000 C   0  0  0  0  0  0  0  0  0  0  0  0
    7.1694   -1.5184    0.0000 C   0  0  0  0  0  0  0  0  0  0  0  0
    7.7610   -0.8574    0.0000 C   0  0  0  0  0  0  0  0  0  0  0  0
    7.9259   -1.7788    0.0000 C   0  0  1  0  0  0  0  0  0  0  0  0
    8.6002   -1.3657    0.0000 C   0  0  0  0  0  0  0  0  0  0  0  0
    8.6135   -0.5067    0.0000 C   0  0  0  0  0  0  0  0  0  0  0  0
    9.3131   -0.0961    0.0000 C   0  0  0  0  0  0  0  0  0  0  0  0
   10.0264   -0.4998    0.0000 C   0  0  0  0  0  0  0  0  0  0  0  0
   10.7252   -0.0964    0.0000 C   0  0  0  0  0  0  0  0  0  0  0  0
   11.4110   -0.5005    0.0000 C   0  0  0  0  0  0  0  0  0  0  0  0
   11.3887   -1.3564    0.0000 N   0  0  0  0  0  0  0  0  0  0  0  0
   10.7254   -1.7763    0.0000 C   0  0  0  0  0  0  0  0  0  0  0  0
   10.0191   -1.3463    0.0000 C   0  0  0  0  0  0  0  0  0  0  0  0
    9.3189   -1.7710    0.0000 C   0  0  0  0  0  0  0  0  0  0  0  0
    7.9123   -2.6274    0.0000 C   0  0  0  0  0  0  0  0  0  0  0  0
    7.1542   -2.9064    0.0000 C   0  0  0  0  0  0  0  0  0  0  0  0
    4.7262   -3.1297    0.0000 C   0  0  0  0  0  0  0  0  0  0  0  0
    5.5047   -2.9532    0.0000 C   0  0  0  0  0  0  0  0  0  0  0  0
    5.7198   -2.1668    0.0000 C   0  0  2  0  0  0  0  0  0  0  0  0
    6.6814   -2.2288    0.0000 C   0  0  1  0  0  0  0  0  0  0  0  0
    5.9969   -0.7124    0.0000 C   0  0  0  0  0  0  0  0  0  0  0  0
    1.2433   -2.5857    0.0000 C   0  0  0  0  0  0  0  0  0  0  0  0
    0.3775   -2.2073    0.0000 C   0  0  0  0  0  0  0  0  0  0  0  0
    1.4140   -1.7787    0.0000 C   0  0  0  0  0  0  0  0  0  0  0  0
    1.9706   -3.2374    0.0000 N   0  0  0  0  0  0  0  0  0  0  0  0
    0.3775   -3.0583    0.0000 C   0  0  0  0  0  0  0  0  0  0  0  0
    4.8498   -2.1370    0.0000 O   0  0  0  0  0  0  0  0  0  0  0  0
  1  2  1  0  0  0  0
  1 35  1  6  0  0  0
  1  6  1  0  0  0  0
  3  2  1  0  0  0  0
  3 33  1  6  0  0  0
  4  5  1  0  0  0  0
  3  4  1  0  0  0  0
  5  6  1  0  0  0  0
  6  7  2  0  0  0  0
  7  8  1  0  0  0  0
  8 29  2  0  0  0  0
  9 10  1  0  0  0  0
 10 11  1  0  0  0  0
 12 10  1  0  0  0  0
 12 13  1  1  0  0  0
 12 23  1  0  0  0  0
 13 22  2  0  0  0  0
 14 15  2  0  0  0  0
 14 13  1  0  0  0  0
 16 15  1  0  0  0  0
 16 17  1  0  0  0  0
 17 18  2  0  0  0  0
 19 18  1  0  0  0  0
 20 19  2  0  0  0  0
 20 21  1  0  0  0  0
 21 16  2  0  0  0  0
 22 21  1  0  0  0  0
 23 24  1  0  0  0  0
  1 25  1  0  0  0  0
 25 26  1  0  0  0  0
 27 26  1  0  0  0  0
 27  8  1  0  0  0  0
 27 35  1  6  0  0  0
 28 24  1  1  0  0  0
 28 10  1  0  0  0  0
 28 27  1  0  0  0  0
 29  9  1  0  0  0  0
 30 31  1  0  0  0  0
 32 30  1  0  0  0  0
 33 30  1  0  0  0  0
 34 30  1  0  0  0  0
M  END
> <ID>
SCHEMBL21136645

> <InChIKey>
JRIDIRLYPURCNI-GOVXMMRMSA-N

> <MW>
468.685

> <Series_Name>
Series_16

$$$$
SCHEMBL21136658
  Mrv1719007171904082D 0   0.00000     0.00000     0

 34 40  0  0  1  0              1 V2000 
    4.0555   -2.5796    0.0000 C   0  0  1  0  0  0  0  0  0  0  0  0
    3.3890   -2.9877    0.0000 C   0  0  0  0  0  0  0  0  0  0  0  0
    2.6431   -2.5744    0.0000 C   0  0  2  0  0  0  0  0  0  0  0  0
    2.6498   -1.7399    0.0000 C   0  0  0  0  0  0  0  0  0  0  0  0
    3.4144   -1.3275    0.0000 C   0  0  0  0  0  0  0  0  0  0  0  0
    4.0556   -1.7259    0.0000 C   0  0  0  0  0  0  0  0  0  0  0  0
    4.6370   -1.2249    0.0000 C   0  0  0  0  0  0  0  0  0  0  0  0
    5.4843   -1.3796    0.0000 C   0  0  0  0  0  0  0  0  0  0  0  0
    5.9346   -0.7321    0.0000 C   0  0  0  0  0  0  0  0  0  0  0  0
    6.7379   -0.8120    0.0000 C   0  0  0  0  0  0  0  0  0  0  0  0
    7.0912   -1.4824    0.0000 C   0  0  0  0  0  0  0  0  0  0  0  0
    7.7173   -0.8538    0.0000 C   0  0  0  0  0  0  0  0  0  0  0  0
    7.8461   -1.7532    0.0000 C   0  0  0  0  0  0  0  0  0  0  0  0
    8.5076   -1.3536    0.0000 C   0  0  0  0  0  0  0  0  0  0  0  0
    8.5563   -0.4849    0.0000 C   0  0  0  0  0  0  0  0  0  0  0  0
    9.2553   -0.1362    0.0000 C   0  0  0  0  0  0  0  0  0  0  0  0
    9.9455   -0.5029    0.0000 C   0  0  0  0  0  0  0  0  0  0  0  0
   10.6223   -0.1158    0.0000 C   0  0  0  0  0  0  0  0  0  0  0  0
   11.3004   -0.5125    0.0000 C   0  0  0  0  0  0  0  0  0  0  0  0
   11.3198   -1.3337    0.0000 N   0  0  0  0  0  0  0  0  0  0  0  0
    9.9464   -1.3666    0.0000 C   0  0  0  0  0  0  0  0  0  0  0  0
   10.6413   -1.7484    0.0000 C   0  0  0  0  0  0  0  0  0  0  0  0
    9.2150   -1.7483    0.0000 C   0  0  0  0  0  0  0  0  0  0  0  0
    7.0645   -2.8547    0.0000 C   0  0  0  0  0  0  0  0  0  0  0  0
    6.6221   -2.2354    0.0000 C   0  0  1  0  0  0  0  0  0  0  0  0
    5.7993   -2.1516    0.0000 C   0  0  1  0  0  0  0  0  0  0  0  0
    5.4698   -2.9138    0.0000 C   0  0  0  0  0  0  0  0  0  0  0  0
    4.6546   -3.0841    0.0000 C   0  0  0  0  0  0  0  0  0  0  0  0
    7.8382   -2.5897    0.0000 C   0  0  0  0  0  0  0  0  0  0  0  0
    1.2572   -2.5936    0.0000 C   0  0  0  0  0  0  0  0  0  0  0  0
    1.4638   -1.7484    0.0000 C   0  0  0  0  0  0  0  0  0  0  0  0
    1.9843   -3.1715    0.0000 N   0  0  0  0  0  0  0  0  0  0  0  0
    0.4066   -3.0007    0.0000 C   0  0  0  0  0  0  0  0  0  0  0  0
    4.8305   -2.1143    0.0000 O   0  0  0  0  0  0  0  0  0  0  0  0
  1  2  1  0  0  0  0
  1 34  1  6  0  0  0
  1  6  1  0  0  0  0
  3  2  1  0  0  0  0
  3 32  1  1  0  0  0
  4  5  1  0  0  0  0
  3  4  1  0  0  0  0
  5  6  1  0  0  0  0
  6  7  2  0  0  0  0
  7  8  1  0  0  0  0
  8  9  2  0  0  0  0
  9 10  1  0  0  0  0
 10 11  1  0  0  0  0
 12 11  1  0  0  0  0
 13 14  1  0  0  0  0
 13 11  1  0  0  0  0
 14 23  2  0  0  0  0
 15 16  2  0  0  0  0
 15 14  1  0  0  0  0
 16 17  1  0  0  0  0
 17 21  2  0  0  0  0
 18 17  1  0  0  0  0
 18 19  2  0  0  0  0
 20 19  1  0  0  0  0
 21 22  1  0  0  0  0
 22 20  2  0  0  0  0
 23 21  1  0  0  0  0
 25 24  1  1  0  0  0
 24 29  1  0  0  0  0
 25 11  1  0  0  0  0
 25 26  1  0  0  0  0
 26 27  1  0  0  0  0
 26  8  1  0  0  0  0
 26 34  1  6  0  0  0
  1 28  1  0  0  0  0
 28 27  1  0  0  0  0
 29 13  1  0  0  0  0
 30 31  1  0  0  0  0
 30 32  1  0  0  0  0
 30 33  1  0  0  0  0
M  END
> <ID>
SCHEMBL21136658

> <InChIKey>
PMRXNJUGXQQOHX-HEALZENISA-N

> <MW>
454.658

> <Series_Name>
Series_16

$$$$
SCHEMBL21136661
  Mrv1719007171904092D 0   0.00000     0.00000     0

 35 40  0  0  0  0              1 V2000 
    3.8787    2.5129    0.0000 O   0  0  0  0  0  0  0  0  0  0  0  0
    6.7963    3.7461    0.0000 C   0  0  0  0  0  0  0  0  0  0  0  0
    1.2381    0.3987    0.0000 C   0  0  0  0  0  0  0  0  0  0  0  0
    0.0000    1.1772    0.0000 C   0  0  0  0  0  0  0  0  0  0  0  0
    4.9880    2.5468    0.0000 C   0  0  2  0  0  0  0  0  0  0  0  0
    9.2667    4.2007    0.0000 C   0  0  0  0  0  0  0  0  0  0  0  0
    8.4365    4.5578    0.0000 C   0  0  0  0  0  0  0  0  0  0  0  0
    7.8329    4.1805    0.0000 C   0  0  0  0  0  0  0  0  0  0  0  0
    7.8329    3.3605    0.0000 C   0  0  0  0  0  0  0  0  0  0  0  0
   10.7156    4.1805    0.0000 C   0  0  0  0  0  0  0  0  0  0  0  0
    9.9911    4.6183    0.0000 C   0  0  0  0  0  0  0  0  0  0  0  0
    9.2567    3.3757    0.0000 C   0  0  0  0  0  0  0  0  0  0  0  0
    6.3388    3.2146    0.0000 C   0  0  0  0  0  0  0  0  0  0  0  0
    5.9615    3.9240    0.0000 C   0  0  0  0  0  0  0  0  0  0  0  0
    5.2219    3.9843    0.0000 C   0  0  0  0  0  0  0  0  0  0  0  0
    4.6384    3.3053    0.0000 C   0  0  0  0  0  0  0  0  0  0  0  0
    3.8335    3.4864    0.0000 C   0  0  0  0  0  0  0  0  0  0  0  0
    3.1995    2.9782    0.0000 C   0  0  0  0  0  0  0  0  0  0  0  0
    2.4751    3.3656    0.0000 C   0  0  0  0  0  0  0  0  0  0  0  0
    1.8111    3.0185    0.0000 C   0  0  0  0  0  0  0  0  0  0  0  0
    1.7255    2.1230    0.0000 C   0  0  0  0  0  0  0  0  0  0  0  0
    9.9610    2.9581    0.0000 C   0  0  0  0  0  0  0  0  0  0  0  0
    8.5121    2.9581    0.0000 C   0  0  0  0  0  0  0  0  0  0  0  0
    7.0934    2.9481    0.0000 C   0  0  0  0  0  0  0  0  0  0  0  0
    5.8760    2.4851    0.0000 C   0  0  0  0  0  0  0  0  0  0  0  0
    3.1895    2.1380    0.0000 C   0  0  0  0  0  0  0  0  0  0  0  0
    7.0934    2.1280    0.0000 C   0  0  0  0  0  0  0  0  0  0  0  0
    6.3840    1.8563    0.0000 C   0  0  0  0  0  0  0  0  0  0  0  0
    4.6183    1.7960    0.0000 C   0  0  0  0  0  0  0  0  0  0  0  0
    4.0598    1.6451    0.0000 C   0  0  0  0  0  0  0  0  0  0  0  0
    2.4600    1.7205    0.0000 C   0  0  0  0  0  0  0  0  0  0  0  0
    0.2113    1.9318    0.0000 C   0  0  0  0  0  0  0  0  0  0  0  0
    0.7697    0.9206    0.0000 C   0  0  0  0  0  0  0  0  0  0  0  0
   10.7080    3.3203    0.0000 N   0  0  0  0  0  0  0  0  0  0  0  0
    1.0187    1.6828    0.0000 N   0  0  0  0  0  0  0  0  0  0  0  0
 13  2  1  0  0  0  0
  6  7  1  0  0  0  0
  7  8  2  0  0  0  0
  8  9  1  0  0  0  0
 10 11  2  0  0  0  0
  6 11  1  0  0  0  0
  6 12  2  0  0  0  0
 13 14  1  0  0  0  0
 14 15  1  0  0  0  0
 15 16  2  0  0  0  0
  5 16  1  0  0  0  0
 16 17  1  0  0  0  0
 17 18  2  0  0  0  0
 18 19  1  0  0  0  0
 19 20  1  0  0  0  0
 20 21  1  0  0  0  0
 12 22  1  0  0  0  0
 12 23  1  0  0  0  0
  9 23  2  0  0  0  0
  9 24  1  0  0  0  0
 13 24  1  0  0  0  0
 33  3  1  0  0  0  0
 13 25  1  0  0  0  0
  5 25  1  0  0  0  0
 18 26  1  0  0  0  0
 24 27  1  0  0  0  0
 27 28  1  0  0  0  0
 25 28  1  0  0  0  0
  5 29  1  0  0  0  0
 29 30  1  0  0  0  0
 26 30  1  0  0  0  0
 26 31  1  0  0  0  0
 21 31  1  0  0  0  0
  4 32  1  0  0  0  0
 10 34  1  0  0  0  0
 22 34  2  0  0  0  0
 21 35  1  0  0  0  0
 32 35  1  0  0  0  0
 33 35  1  0  0  0  0
  5  1  1  6  0  0  0
M  END
> <ID>
SCHEMBL21136661

> <InChIKey>
HOWOOVUCJKAGDV-XRXTYQLVSA-N

> <MW>
470.701

> <Series_Name>
Series_16

$$$$
SCHEMBL21136668
  Mrv1719007171904102D 0   0.00000     0.00000     0

 33 37  0  0  0  0              1 V2000 
    2.1751   -0.2091    0.0000 F   0  0  0  0  0  0  0  0  0  0  0  0
    2.9907   -0.6344    0.0000 Cl  0  0  0  0  0  0  0  0  0  0  0  0
    8.6166   -1.4222    0.0000 C   0  0  0  0  0  0  0  0  0  0  0  0
    0.9272   -2.7119    0.0000 O   0  0  0  0  0  0  0  0  0  0  0  0
    5.0752   -5.1449    0.0000 C   0  0  0  0  0  0  0  0  0  0  0  0
    1.4500   -0.6088    0.0000 C   0  0  0  0  0  0  0  0  0  0  0  0
    0.6971   -0.2091    0.0000 C   0  0  0  0  0  0  0  0  0  0  0  0
    0.0140   -0.6135    0.0000 C   0  0  0  0  0  0  0  0  0  0  0  0
    0.0140   -1.4361    0.0000 C   0  0  0  0  0  0  0  0  0  0  0  0
    0.7251   -1.8497    0.0000 C   0  0  0  0  0  0  0  0  0  0  0  0
    1.4640   -1.4268    0.0000 C   0  0  0  0  0  0  0  0  0  0  0  0
    7.9195   -1.8265    0.0000 C   0  0  0  0  0  0  0  0  0  0  0  0
    2.1751   -1.8497    0.0000 C   0  0  0  0  0  0  0  0  0  0  0  0
    3.6158   -2.6677    0.0000 C   0  0  0  0  0  0  0  0  0  0  0  0
    3.6112   -1.8544    0.0000 C   0  0  0  0  0  0  0  0  0  0  0  0
    5.7305   -1.4361    0.0000 C   0  0  0  0  0  0  0  0  0  0  0  0
    5.0612   -1.8265    0.0000 C   0  0  0  0  0  0  0  0  0  0  0  0
    2.1890   -2.6910    0.0000 C   0  0  0  0  0  0  0  0  0  0  0  0
    2.9001   -3.1046    0.0000 C   0  0  0  0  0  0  0  0  0  0  0  0
    6.4973   -2.6491    0.0000 C   0  0  0  0  0  0  0  0  0  0  0  0
    5.7769   -3.0813    0.0000 C   0  0  0  0  0  0  0  0  0  0  0  0
    4.3362   -3.0906    0.0000 C   0  0  0  0  0  0  0  0  0  0  0  0
    4.3501   -3.9226    0.0000 C   0  0  0  0  0  0  0  0  0  0  0  0
    3.6251   -4.3501    0.0000 C   0  0  0  0  0  0  0  0  0  0  0  0
    5.7514   -3.8877    0.0000 C   0  0  0  0  0  0  0  0  0  0  0  0
    6.4973   -4.3571    0.0000 O   0  0  0  0  0  0  0  0  0  0  0  0
    7.2014   -1.4361    0.0000 C   0  0  0  0  0  0  0  0  0  0  0  0
    7.2014   -0.5995    0.0000 O   0  0  0  0  0  0  0  0  0  0  0  0
    2.9419   -1.4431    0.0000 C   0  0  0  0  0  0  0  0  0  0  0  0
    5.0543   -2.6979    0.0000 N   0  0  0  0  0  0  0  0  0  0  0  0
    5.0612   -4.3641    0.0000 N   0  0  0  0  0  0  0  0  0  0  0  0
    2.9070   -3.9597    0.0000 N   0  0  0  0  0  0  0  0  0  0  0  0
    6.4834   -1.8544    0.0000 N   0  0  0  0  0  0  0  0  0  0  0  0
  1  6  1  0  0  0  0
  6  7  1  0  0  0  0
  7  8  2  0  0  0  0
  8  9  1  0  0  0  0
  9 10  2  0  0  0  0
  4 10  1  0  0  0  0
  6 11  2  0  0  0  0
 10 11  1  0  0  0  0
  3 12  2  0  0  0  0
 11 13  1  0  0  0  0
 14 15  1  0  0  0  0
 16 17  1  0  0  0  0
 13 18  2  0  0  0  0
 18 19  1  0  0  0  0
 14 19  2  0  0  0  0
 20 21  1  0  0  0  0
 14 22  1  0  0  0  0
 22 23  2  0  0  0  0
 23 24  1  0  0  0  0
 21 25  1  0  0  0  0
 25 26  2  0  0  0  0
 12 27  1  0  0  0  0
 27 28  2  0  0  0  0
  2 29  1  0  0  0  0
 15 29  2  0  0  0  0
 13 29  1  0  0  0  0
 17 30  1  0  0  0  0
 21 30  1  0  0  0  0
 22 30  1  0  0  0  0
  5 31  1  0  0  0  0
 23 31  1  0  0  0  0
 25 31  1  0  0  0  0
 19 32  1  0  0  0  0
 24 32  2  0  0  0  0
 16 33  1  0  0  0  0
 20 33  1  0  0  0  0
 27 33  1  0  0  0  0
M  END
> <ID>
SCHEMBL21136668

> <InChIKey>
XQFCVVDSLRDCHM-UHFFFAOYSA-N

> <MW>
466.9

> <Series_Name>
Series_17

$$$$
SCHEMBL21136676
  Mrv1719007171904122D 0   0.00000     0.00000     0

 34 41  0  0  0  0              1 V2000 
    5.0939   -2.1702    0.0000 C   0  0  2  0  0  0  0  0  0  0  0  0
    9.2076   -0.4555    0.0000 C   0  0  0  0  0  0  0  0  0  0  0  0
    8.5468   -0.0402    0.0000 C   0  0  0  0  0  0  0  0  0  0  0  0
    7.8368   -0.4689    0.0000 C   0  0  0  0  0  0  0  0  0  0  0  0
    7.8233   -1.3307    0.0000 C   0  0  0  0  0  0  0  0  0  0  0  0
   10.5963   -0.4689    0.0000 C   0  0  0  0  0  0  0  0  0  0  0  0
    9.8864   -0.0402    0.0000 C   0  0  0  0  0  0  0  0  0  0  0  0
    9.2166   -1.3440    0.0000 C   0  0  0  0  0  0  0  0  0  0  0  0
    6.3933   -1.4803    0.0000 C   0  0  0  0  0  0  0  0  0  0  0  0
    6.0551   -0.7636    0.0000 C   0  0  0  0  0  0  0  0  0  0  0  0
    5.2245   -0.6564    0.0000 C   0  0  0  0  0  0  0  0  0  0  0  0
    4.7735   -1.3709    0.0000 C   0  0  0  0  0  0  0  0  0  0  0  0
    3.9920   -1.1922    0.0000 C   0  0  0  0  0  0  0  0  0  0  0  0
    3.3536   -1.7148    0.0000 C   0  0  0  0  0  0  0  0  0  0  0  0
    2.7194   -1.3129    0.0000 C   0  0  0  0  0  0  0  0  0  0  0  0
    2.0630   -1.6745    0.0000 C   0  0  0  0  0  0  0  0  0  0  0  0
    1.9827   -2.6301    0.0000 C   0  0  0  0  0  0  0  0  0  0  0  0
    7.1223   -1.7593    0.0000 C   0  0  0  0  0  0  0  0  0  0  0  0
    7.1134   -2.6256    0.0000 C   0  0  0  0  0  0  0  0  0  0  0  0
    6.3632   -2.8935    0.0000 C   0  0  0  0  0  0  0  0  0  0  0  0
    4.7691   -2.9605    0.0000 C   0  0  0  0  0  0  0  0  0  0  0  0
    3.9920   -3.1347    0.0000 C   0  0  0  0  0  0  0  0  0  0  0  0
    2.6792   -3.0141    0.0000 C   0  0  0  0  0  0  0  0  0  0  0  0
    8.4932   -1.7549    0.0000 C   0  0  0  0  0  0  0  0  0  0  0  0
    9.8864   -1.7549    0.0000 C   0  0  0  0  0  0  0  0  0  0  0  0
    0.5224   -2.7194    0.0000 C   0  0  0  0  0  0  0  0  0  0  0  0
    0.0536   -3.3357    0.0000 C   0  0  0  0  0  0  0  0  0  0  0  0
    0.4287   -4.0859    0.0000 C   0  0  0  0  0  0  0  0  0  0  0  0
    1.1922   -3.8983    0.0000 C   0  0  0  0  0  0  0  0  0  0  0  0
    5.8876   -2.3019    0.0000 C   0  0  0  0  0  0  0  0  0  0  0  0
    3.4048   -2.5542    0.0000 C   0  0  0  0  0  0  0  0  0  0  0  0
    4.1528   -2.1501    0.0000 O   0  0  0  0  0  0  0  0  0  0  0  0
   10.5963   -1.3463    0.0000 N   0  0  0  0  0  0  0  0  0  0  0  0
    1.2860   -3.0477    0.0000 N   0  0  0  0  0  0  0  0  0  0  0  0
  2  3  1  0  0  0  0
  3  4  2  0  0  0  0
  4  5  1  0  0  0  0
  6  7  2  0  0  0  0
  2  7  1  0  0  0  0
  2  8  2  0  0  0  0
  9 10  1  0  0  0  0
 10 11  1  0  0  0  0
 11 12  2  0  0  0  0
  1 12  1  0  0  0  0
 12 13  1  0  0  0  0
 13 14  2  0  0  0  0
 14 15  1  0  0  0  0
 15 16  1  0  0  0  0
 16 17  1  0  0  0  0
  5 18  1  0  0  0  0
  9 18  1  0  0  0  0
 18 19  1  0  0  0  0
 19 20  1  0  0  0  0
  1 21  1  0  0  0  0
 21 22  1  0  0  0  0
 17 23  1  0  0  0  0
  5 24  2  0  0  0  0
  8 24  1  0  0  0  0
  8 25  1  0  0  0  0
 26 27  1  0  0  0  0
 27 28  1  0  0  0  0
 28 29  1  0  0  0  0
 20 30  1  0  0  0  0
  1 30  1  0  0  0  0
  9 30  1  0  0  0  0
 14 31  1  0  0  0  0
 22 31  1  0  0  0  0
 23 31  1  0  0  0  0
  1 32  1  6  0  0  0
 31 32  1  0  0  0  0
  6 33  1  0  0  0  0
 25 33  2  0  0  0  0
 17 34  1  0  0  0  0
 26 34  1  0  0  0  0
 29 34  1  0  0  0  0
M  END
> <ID>
SCHEMBL21136676

> <InChIKey>
UEHPASVWOFZNPJ-HJNRHZLXSA-N

> <MW>
452.642

> <Series_Name>
Series_16

$$$$
SCHEMBL21136716
  Mrv1719007171904162D 0   0.00000     0.00000     0

 39 42  0  0  0  0              1 V2000 
    2.1865   -0.0415    0.0000 C   0  0  0  0  0  0  0  0  0  0  0  0
    6.5041   -0.0554    0.0000 C   0  0  0  0  0  0  0  0  0  0  0  0
    5.7706   -1.2594    0.0000 C   0  0  0  0  0  0  0  0  0  0  0  0
    5.7568   -0.4429    0.0000 C   0  0  0  0  0  0  0  0  0  0  0  0
    2.9960   -1.2870    0.0000 Cl  0  0  0  0  0  0  0  0  0  0  0  0
    4.5321   -1.2870    0.0000 O   0  0  0  0  0  0  0  0  0  0  0  0
    0.7404   -3.3281    0.0000 F   0  0  0  0  0  0  0  0  0  0  0  0
    1.4531   -3.7364    0.0000 F   0  0  0  0  0  0  0  0  0  0  0  0
    6.4902   -0.8511    0.0000 C   0  0  0  0  0  0  0  0  0  0  0  0
    1.4485   -1.2501    0.0000 C   0  0  0  0  0  0  0  0  0  0  0  0
    0.7058   -0.8441    0.0000 C   0  0  0  0  0  0  0  0  0  0  0  0
    0.0138   -1.2455    0.0000 C   0  0  0  0  0  0  0  0  0  0  0  0
    0.0138   -2.0620    0.0000 C   0  0  0  0  0  0  0  0  0  0  0  0
    0.7242   -2.4725    0.0000 C   0  0  0  0  0  0  0  0  0  0  0  0
    1.4531   -2.0666    0.0000 C   0  0  0  0  0  0  0  0  0  0  0  0
    2.8923   -2.0804    0.0000 C   0  0  0  0  0  0  0  0  0  0  0  0
    4.3730   -2.1035    0.0000 C   0  0  0  0  0  0  0  0  0  0  0  0
    5.0603   -2.4817    0.0000 C   0  0  0  0  0  0  0  0  0  0  0  0
    2.1634   -2.4863    0.0000 C   0  0  0  0  0  0  0  0  0  0  0  0
    2.1727   -3.2982    0.0000 C   0  0  0  0  0  0  0  0  0  0  0  0
    3.6026   -3.2982    0.0000 C   0  0  0  0  0  0  0  0  0  0  0  0
    3.6119   -2.5047    0.0000 C   0  0  0  0  0  0  0  0  0  0  0  0
    5.7429   -2.1035    0.0000 C   0  0  0  0  0  0  0  0  0  0  0  0
    6.4349   -3.3627    0.0000 C   0  0  0  0  0  0  0  0  0  0  0  0
    5.7706   -3.7364    0.0000 C   0  0  0  0  0  0  0  0  0  0  0  0
    2.8830   -3.7179    0.0000 C   0  0  0  0  0  0  0  0  0  0  0  0
    4.3223   -3.7318    0.0000 C   0  0  0  0  0  0  0  0  0  0  0  0
    4.3177   -4.5575    0.0000 C   0  0  0  0  0  0  0  0  0  0  0  0
    3.6119   -4.9542    0.0000 C   0  0  0  0  0  0  0  0  0  0  0  0
    7.1960   -2.0897    0.0000 C   0  0  0  0  0  0  0  0  0  0  0  0
    7.9225   -2.5393    0.0000 O   0  0  0  0  0  0  0  0  0  0  0  0
    7.2168   -1.3008    0.0000 O   0  0  0  0  0  0  0  0  0  0  0  0
    2.8784   -4.5667    0.0000 N   0  0  0  0  0  0  0  0  0  0  0  0
    6.4902   -2.5324    0.0000 N   0  0  0  0  0  0  0  0  0  0  0  0
    5.0442   -3.3489    0.0000 N   0  0  0  0  0  0  0  0  0  0  0  0
    2.1796   -0.8649    0.0000 O   0  0  0  0  0  0  0  0  0  0  0  0
    5.4958   -4.5676    0.0000 O   0  5  0  0  0  0  0  0  0  0  0  0
    4.9038   -4.9026    0.0000 N   0  3  0  0  0  0  0  0  0  0  0  0
    4.8980   -5.5829    0.0000 O   0  0  0  0  0  0  0  0  0  0  0  0
  2  9  1  0  0  0  0
  3  9  1  0  0  0  0
  4  9  1  0  0  0  0
 10 11  1  0  0  0  0
 11 12  2  0  0  0  0
 12 13  1  0  0  0  0
 13 14  2  0  0  0  0
  7 14  1  0  0  0  0
 10 15  2  0  0  0  0
 14 15  1  0  0  0  0
  5 16  1  0  0  0  0
  6 17  1  0  0  0  0
 17 18  1  0  0  0  0
 15 19  1  0  0  0  0
 16 19  1  0  0  0  0
 19 20  2  0  0  0  0
  8 20  1  0  0  0  0
 21 22  1  0  0  0  0
 16 22  2  0  0  0  0
 18 23  1  0  0  0  0
 24 25  1  0  0  0  0
 20 26  1  0  0  0  0
 21 26  2  0  0  0  0
 21 27  1  0  0  0  0
 27 28  2  0  0  0  0
 28 29  1  0  0  0  0
 30 31  2  0  0  0  0
  9 32  1  0  0  0  0
 30 32  1  0  0  0  0
 26 33  1  0  0  0  0
 29 33  2  0  0  0  0
 23 34  1  0  0  0  0
 24 34  1  0  0  0  0
 30 34  1  0  0  0  0
 18 35  1  0  0  0  0
 25 35  1  0  0  0  0
 27 35  1  0  0  0  0
  1 36  1  0  0  0  0
 10 36  1  0  0  0  0
 28 38  1  0  0  0  0
 37 38  1  0  0  0  0
 38 39  2  0  0  0  0
M  END
> <ID>
SCHEMBL21136716

> <InChIKey>
HMYBKDGKIAGIJA-UHFFFAOYSA-N

> <MW>
564.97

> <Series_Name>
Series_17

$$$$
SCHEMBL21136719
  Mrv1719007171904162D 0   0.00000     0.00000     0

 29 32  0  0  0  0              1 V2000 
    2.1766   -0.2079    0.0000 F   0  0  0  0  0  0  0  0  0  0  0  0
    2.9876   -0.6238    0.0000 Cl  0  0  0  0  0  0  0  0  0  0  0  0
    0.9220   -2.6965    0.0000 O   0  0  0  0  0  0  0  0  0  0  0  0
    6.4813   -4.3323    0.0000 O   0  0  0  0  0  0  0  0  0  0  0  0
    5.0603   -5.1156    0.0000 C   0  0  0  0  0  0  0  0  0  0  0  0
    1.4464   -0.5915    0.0000 C   0  0  0  0  0  0  0  0  0  0  0  0
    0.6932   -0.2079    0.0000 C   0  0  0  0  0  0  0  0  0  0  0  0
    0.0139   -0.6099    0.0000 C   0  0  0  0  0  0  0  0  0  0  0  0
    0.0139   -1.4279    0.0000 C   0  0  0  0  0  0  0  0  0  0  0  0
    0.7255   -1.8392    0.0000 C   0  0  0  0  0  0  0  0  0  0  0  0
    1.4556   -1.4326    0.0000 C   0  0  0  0  0  0  0  0  0  0  0  0
    2.8882   -1.4187    0.0000 C   0  0  0  0  0  0  0  0  0  0  0  0
    5.7395   -1.4140    0.0000 C   0  0  0  0  0  0  0  0  0  0  0  0
    5.1156   -1.7745    0.0000 C   0  0  0  0  0  0  0  0  0  0  0  0
    2.1766   -1.8392    0.0000 C   0  0  0  0  0  0  0  0  0  0  0  0
    3.6045   -1.8438    0.0000 C   0  0  0  0  0  0  0  0  0  0  0  0
    3.6091   -2.6525    0.0000 C   0  0  0  0  0  0  0  0  0  0  0  0
    2.1766   -2.6618    0.0000 C   0  0  0  0  0  0  0  0  0  0  0  0
    2.8882   -3.0731    0.0000 C   0  0  0  0  0  0  0  0  0  0  0  0
    6.4604   -2.6618    0.0000 C   0  0  0  0  0  0  0  0  0  0  0  0
    5.7673   -3.0639    0.0000 C   0  0  0  0  0  0  0  0  0  0  0  0
    4.3254   -3.0731    0.0000 C   0  0  0  0  0  0  0  0  0  0  0  0
    4.3393   -3.8865    0.0000 C   0  0  0  0  0  0  0  0  0  0  0  0
    3.6322   -4.3116    0.0000 C   0  0  0  0  0  0  0  0  0  0  0  0
    5.7164   -3.9373    0.0000 C   0  0  0  0  0  0  0  0  0  0  0  0
    6.6753   -1.8438    0.0000 N   0  0  0  0  0  0  0  0  0  0  0  0
    5.0464   -4.3393    0.0000 N   0  0  0  0  0  0  0  0  0  0  0  0
    2.8975   -3.9373    0.0000 N   0  0  0  0  0  0  0  0  0  0  0  0
    5.0394   -2.6757    0.0000 N   0  0  0  0  0  0  0  0  0  0  0  0
  1  6  1  0  0  0  0
  6  7  1  0  0  0  0
  7  8  2  0  0  0  0
  8  9  1  0  0  0  0
  9 10  2  0  0  0  0
  3 10  1  0  0  0  0
  6 11  2  0  0  0  0
 10 11  1  0  0  0  0
  2 12  1  0  0  0  0
 13 14  1  0  0  0  0
 12 15  1  0  0  0  0
 11 15  1  0  0  0  0
 12 16  2  0  0  0  0
 16 17  1  0  0  0  0
 15 18  2  0  0  0  0
 18 19  1  0  0  0  0
 17 19  2  0  0  0  0
 20 21  1  0  0  0  0
 17 22  1  0  0  0  0
 22 23  2  0  0  0  0
 23 24  1  0  0  0  0
  4 25  2  0  0  0  0
 13 26  1  0  0  0  0
 20 26  1  0  0  0  0
  5 27  1  0  0  0  0
 23 27  1  0  0  0  0
 25 27  1  0  0  0  0
 19 28  1  0  0  0  0
 24 28  2  0  0  0  0
 14 29  1  0  0  0  0
 21 29  1  0  0  0  0
 22 29  1  0  0  0  0
M  END
> <ID>
SCHEMBL21136719

> <InChIKey>
INKYFRBZEKUEQJ-UHFFFAOYSA-N

> <MW>
414.87

> <Series_Name>
Series_17

$$$$
SCHEMBL21136727
  Mrv1719007171904172D 0   0.00000     0.00000     0

 35 38  0  0  0  0              1 V2000 
    2.1827   -0.2085    0.0000 F   0  0  0  0  0  0  0  0  0  0  0  0
    8.6334   -0.5700    0.0000 C   0  0  0  0  0  0  0  0  0  0  0  0
    5.7694   -0.6673    0.0000 C   0  0  0  0  0  0  0  0  0  0  0  0
    2.9960   -0.6326    0.0000 Cl  0  0  0  0  0  0  0  0  0  0  0  0
    9.3563   -0.9870    0.0000 C   0  0  0  0  0  0  0  0  0  0  0  0
    9.3563   -1.8073    0.0000 C   0  0  0  0  0  0  0  0  0  0  0  0
    0.9245   -2.7040    0.0000 O   0  0  0  0  0  0  0  0  0  0  0  0
    5.7833   -3.9065    0.0000 C   0  0  0  0  0  0  0  0  0  0  0  0
    1.4597   -0.6071    0.0000 C   0  0  0  0  0  0  0  0  0  0  0  0
    0.7090   -0.2085    0.0000 C   0  0  0  0  0  0  0  0  0  0  0  0
    0.0278   -0.6117    0.0000 C   0  0  0  0  0  0  0  0  0  0  0  0
    0.0278   -1.4320    0.0000 C   0  0  0  0  0  0  0  0  0  0  0  0
    0.7275   -1.8444    0.0000 C   0  0  0  0  0  0  0  0  0  0  0  0
    8.6507   -1.3868    0.0000 C   0  0  0  0  0  0  0  0  0  0  0  0
    1.4597   -1.4366    0.0000 C   0  0  0  0  0  0  0  0  0  0  0  0
    5.7694   -1.4227    0.0000 C   0  0  0  0  0  0  0  0  0  0  0  0
    2.9241   -1.4320    0.0000 C   0  0  0  0  0  0  0  0  0  0  0  0
    3.6192   -2.6600    0.0000 C   0  0  0  0  0  0  0  0  0  0  0  0
    3.6146   -1.8490    0.0000 C   0  0  0  0  0  0  0  0  0  0  0  0
    2.1827   -1.8583    0.0000 C   0  0  0  0  0  0  0  0  0  0  0  0
    5.0604   -1.8351    0.0000 C   0  0  0  0  0  0  0  0  0  0  0  0
    2.1966   -2.6832    0.0000 C   0  0  0  0  0  0  0  0  0  0  0  0
    2.9056   -3.0956    0.0000 C   0  0  0  0  0  0  0  0  0  0  0  0
    6.4646   -2.6832    0.0000 C   0  0  0  0  0  0  0  0  0  0  0  0
    5.7972   -3.0724    0.0000 C   0  0  0  0  0  0  0  0  0  0  0  0
    4.3422   -3.0817    0.0000 C   0  0  0  0  0  0  0  0  0  0  0  0
    4.3515   -3.9112    0.0000 C   0  0  0  0  0  0  0  0  0  0  0  0
    3.6424   -4.3376    0.0000 C   0  0  0  0  0  0  0  0  0  0  0  0
    7.2014   -0.6048    0.0000 O   0  0  0  0  0  0  0  0  0  0  0  0
    7.2084   -1.4320    0.0000 C   0  0  0  0  0  0  0  0  0  0  0  0
    5.0604   -2.6971    0.0000 N   0  0  0  0  0  0  0  0  0  0  0  0
    6.4924   -1.8490    0.0000 N   0  0  0  0  0  0  0  0  0  0  0  0
    2.9125   -3.9482    0.0000 N   0  0  0  0  0  0  0  0  0  0  0  0
    5.0674   -4.3584    0.0000 O   0  0  0  0  0  0  0  0  0  0  0  0
    7.9243   -1.8420    0.0000 O   0  0  0  0  0  0  0  0  0  0  0  0
  1  9  1  0  0  0  0
  9 10  1  0  0  0  0
 10 11  2  0  0  0  0
 11 12  1  0  0  0  0
 12 13  2  0  0  0  0
  7 13  1  0  0  0  0
  2 14  1  0  0  0  0
  5 14  1  0  0  0  0
  6 14  1  0  0  0  0
  9 15  2  0  0  0  0
 13 15  1  0  0  0  0
  3 16  1  0  0  0  0
  4 17  1  0  0  0  0
 18 19  1  0  0  0  0
 17 19  2  0  0  0  0
 17 20  1  0  0  0  0
 15 20  1  0  0  0  0
 16 21  1  0  0  0  0
 20 22  2  0  0  0  0
 22 23  1  0  0  0  0
 18 23  2  0  0  0  0
 24 25  1  0  0  0  0
 18 26  1  0  0  0  0
 26 27  2  0  0  0  0
 27 28  1  0  0  0  0
 29 30  2  0  0  0  0
 21 31  1  0  0  0  0
 25 31  1  0  0  0  0
 26 31  1  0  0  0  0
 16 32  1  0  0  0  0
 24 32  1  0  0  0  0
 30 32  1  0  0  0  0
 23 33  1  0  0  0  0
 28 33  2  0  0  0  0
  8 34  1  0  0  0  0
 27 34  1  0  0  0  0
 14 35  1  0  0  0  0
 30 35  1  0  0  0  0
M  END
> <ID>
SCHEMBL21136727

> <InChIKey>
XFTINLJSAUEXDK-UHFFFAOYSA-N

> <MW>
501.98

> <Series_Name>
Series_17

$$$$
SCHEMBL21136739
  Mrv1719007171904182D 0   0.00000     0.00000     0

 27 30  0  0  0  0              1 V2000 
    2.1766   -0.2004    0.0000 F   0  0  0  0  0  0  0  0  0  0  0  0
    2.9850   -0.6081    0.0000 Cl  0  0  0  0  0  0  0  0  0  0  0  0
    0.9467   -2.6740    0.0000 O   0  0  0  0  0  0  0  0  0  0  0  0
    5.7904   -3.8418    0.0000 C   0  0  0  0  0  0  0  0  0  0  0  0
    1.4510   -0.5896    0.0000 C   0  0  0  0  0  0  0  0  0  0  0  0
    0.7186   -0.1935    0.0000 C   0  0  0  0  0  0  0  0  0  0  0  0
    0.0138   -0.6081    0.0000 C   0  0  0  0  0  0  0  0  0  0  0  0
    0.0276   -1.4234    0.0000 C   0  0  0  0  0  0  0  0  0  0  0  0
    0.7463   -1.8334    0.0000 C   0  0  0  0  0  0  0  0  0  0  0  0
    1.4556   -1.4004    0.0000 C   0  0  0  0  0  0  0  0  0  0  0  0
    2.8882   -1.4004    0.0000 C   0  0  0  0  0  0  0  0  0  0  0  0
    5.7351   -1.3819    0.0000 C   0  0  0  0  0  0  0  0  0  0  0  0
    5.0718   -1.7688    0.0000 C   0  0  0  0  0  0  0  0  0  0  0  0
    2.1835   -1.8196    0.0000 C   0  0  0  0  0  0  0  0  0  0  0  0
    3.6207   -2.6303    0.0000 C   0  0  0  0  0  0  0  0  0  0  0  0
    3.6069   -1.8104    0.0000 C   0  0  0  0  0  0  0  0  0  0  0  0
    2.1835   -2.6395    0.0000 C   0  0  0  0  0  0  0  0  0  0  0  0
    2.9021   -3.0496    0.0000 C   0  0  0  0  0  0  0  0  0  0  0  0
    6.4261   -2.6395    0.0000 C   0  0  0  0  0  0  0  0  0  0  0  0
    5.7904   -3.0127    0.0000 C   0  0  0  0  0  0  0  0  0  0  0  0
    4.3393   -3.0357    0.0000 C   0  0  0  0  0  0  0  0  0  0  0  0
    4.3531   -3.8464    0.0000 C   0  0  0  0  0  0  0  0  0  0  0  0
    3.6345   -4.2703    0.0000 C   0  0  0  0  0  0  0  0  0  0  0  0
    6.6887   -1.8035    0.0000 N   0  0  0  0  0  0  0  0  0  0  0  0
    2.9159   -3.8901    0.0000 N   0  0  0  0  0  0  0  0  0  0  0  0
    5.0630   -4.2510    0.0000 N   0  0  0  0  0  0  0  0  0  0  0  0
    5.0510   -2.6395    0.0000 N   0  0  0  0  0  0  0  0  0  0  0  0
  1  5  1  0  0  0  0
  5  6  1  0  0  0  0
  6  7  2  0  0  0  0
  7  8  1  0  0  0  0
  8  9  2  0  0  0  0
  3  9  1  0  0  0  0
  5 10  2  0  0  0  0
  9 10  1  0  0  0  0
  2 11  1  0  0  0  0
 12 13  1  0  0  0  0
 10 14  1  0  0  0  0
 11 14  1  0  0  0  0
 15 16  1  0  0  0  0
 11 16  2  0  0  0  0
 14 17  2  0  0  0  0
 17 18  1  0  0  0  0
 15 18  2  0  0  0  0
 19 20  1  0  0  0  0
 15 21  1  0  0  0  0
 21 22  2  0  0  0  0
 22 23  1  0  0  0  0
 12 24  1  0  0  0  0
 19 24  1  0  0  0  0
 18 25  1  0  0  0  0
 23 25  2  0  0  0  0
  4 26  1  0  0  0  0
 22 26  1  0  0  0  0
 13 27  1  0  0  0  0
 20 27  1  0  0  0  0
 21 27  1  0  0  0  0
M  END
> <ID>
SCHEMBL21136739

> <InChIKey>
GWXLBTLAYNQXRQ-UHFFFAOYSA-N

> <MW>
386.86

> <Series_Name>
Series_17

$$$$
SCHEMBL21136743
  Mrv1719007171904182D 0   0.00000     0.00000     0

 31 34  0  0  0  0              1 V2000 
    2.1691   -0.2086    0.0000 F   0  0  0  0  0  0  0  0  0  0  0  0
    7.1745   -0.5770    0.0000 O   0  0  0  0  0  0  0  0  0  0  0  0
    2.9755   -0.6258    0.0000 Cl  0  0  0  0  0  0  0  0  0  0  0  0
    8.6066   -1.3765    0.0000 C   0  0  0  0  0  0  0  0  0  0  0  0
    0.9385   -2.7043    0.0000 O   0  0  0  0  0  0  0  0  0  0  0  0
    5.7841   -3.8792    0.0000 C   0  0  0  0  0  0  0  0  0  0  0  0
    1.4460   -0.6072    0.0000 C   0  0  0  0  0  0  0  0  0  0  0  0
    0.7092   -0.2086    0.0000 C   0  0  0  0  0  0  0  0  0  0  0  0
    0.0139   -0.6258    0.0000 C   0  0  0  0  0  0  0  0  0  0  0  0
    0.0278   -1.4460    0.0000 C   0  0  0  0  0  0  0  0  0  0  0  0
    0.7369   -1.8586    0.0000 C   0  0  0  0  0  0  0  0  0  0  0  0
    1.4507   -1.4228    0.0000 C   0  0  0  0  0  0  0  0  0  0  0  0
    7.2209   -1.3904    0.0000 C   0  0  0  0  0  0  0  0  0  0  0  0
    2.8921   -1.4089    0.0000 C   0  0  0  0  0  0  0  0  0  0  0  0
    7.8976   -1.7936    0.0000 C   0  0  0  0  0  0  0  0  0  0  0  0
    5.7286   -1.4043    0.0000 C   0  0  0  0  0  0  0  0  0  0  0  0
    5.0889   -1.7797    0.0000 C   0  0  0  0  0  0  0  0  0  0  0  0
    3.6058   -2.6464    0.0000 C   0  0  0  0  0  0  0  0  0  0  0  0
    3.6012   -1.8354    0.0000 C   0  0  0  0  0  0  0  0  0  0  0  0
    2.1691   -1.8447    0.0000 C   0  0  0  0  0  0  0  0  0  0  0  0
    2.1830   -2.6696    0.0000 C   0  0  0  0  0  0  0  0  0  0  0  0
    2.8967   -3.0682    0.0000 C   0  0  0  0  0  0  0  0  0  0  0  0
    6.4654   -2.6418    0.0000 C   0  0  0  0  0  0  0  0  0  0  0  0
    5.7702   -3.0451    0.0000 C   0  0  0  0  0  0  0  0  0  0  0  0
    4.3289   -3.0544    0.0000 C   0  0  0  0  0  0  0  0  0  0  0  0
    4.3381   -3.8839    0.0000 C   0  0  0  0  0  0  0  0  0  0  0  0
    3.6290   -4.3103    0.0000 C   0  0  0  0  0  0  0  0  0  0  0  0
    2.9059   -3.9279    0.0000 N   0  0  0  0  0  0  0  0  0  0  0  0
    6.4654   -1.8284    0.0000 N   0  0  0  0  0  0  0  0  0  0  0  0
    5.0520   -4.3044    0.0000 N   0  0  0  0  0  0  0  0  0  0  0  0
    5.0472   -2.6696    0.0000 N   0  0  0  0  0  0  0  0  0  0  0  0
  1  7  1  0  0  0  0
  7  8  1  0  0  0  0
  8  9  2  0  0  0  0
  9 10  1  0  0  0  0
 10 11  2  0  0  0  0
  5 11  1  0  0  0  0
  7 12  2  0  0  0  0
 11 12  1  0  0  0  0
  2 13  2  0  0  0  0
  3 14  1  0  0  0  0
  4 15  2  0  0  0  0
 13 15  1  0  0  0  0
 16 17  1  0  0  0  0
 18 19  1  0  0  0  0
 14 19  2  0  0  0  0
 14 20  1  0  0  0  0
 12 20  1  0  0  0  0
 20 21  2  0  0  0  0
 21 22  1  0  0  0  0
 18 22  2  0  0  0  0
 23 24  1  0  0  0  0
 18 25  1  0  0  0  0
 25 26  2  0  0  0  0
 26 27  1  0  0  0  0
 22 28  1  0  0  0  0
 27 28  2  0  0  0  0
 13 29  1  0  0  0  0
 16 29  1  0  0  0  0
 23 29  1  0  0  0  0
  6 30  1  0  0  0  0
 26 30  1  0  0  0  0
 17 31  1  0  0  0  0
 24 31  1  0  0  0  0
 25 31  1  0  0  0  0
M  END
> <ID>
SCHEMBL21136743

> <InChIKey>
SXGYREOWRPWHPY-UHFFFAOYSA-N

> <MW>
440.9

> <Series_Name>
Series_17

$$$$
SCHEMBL21136747
  Mrv1719007171904192D 0   0.00000     0.00000     0

 32 38  0  0  1  0              1 V2000 
    2.2387   -3.2059    0.0000 C   0  0  0  0  0  0  0  0  0  0  0  0
    2.8705   -2.7576    0.0000 C   0  0  1  0  0  0  0  0  0  0  0  0
    1.5218   -2.7608    0.0000 C   0  0  0  0  0  0  0  0  0  0  0  0
    2.2273   -1.3829    0.0000 C   0  0  0  0  0  0  0  0  0  0  0  0
    1.5425   -1.8526    0.0000 C   0  0  0  0  0  0  0  0  0  0  0  0
    2.9336   -1.8728    0.0000 C   0  0  0  0  0  0  0  0  0  0  0  0
    4.3034   -1.4944    0.0000 C   0  0  0  0  0  0  0  0  0  0  0  0
    4.7376   -0.7577    0.0000 C   0  0  0  0  0  0  0  0  0  0  0  0
    5.5271   -0.8351    0.0000 C   0  0  0  0  0  0  0  0  0  0  0  0
    5.8806   -1.5871    0.0000 C   0  0  0  0  0  0  0  0  0  0  0  0
    6.4374   -0.9274    0.0000 C   0  0  0  0  0  0  0  0  0  0  0  0
    6.5936   -1.8707    0.0000 C   0  0  0  0  0  0  0  0  0  0  0  0
    7.2794   -1.4249    0.0000 C   0  0  0  0  0  0  0  0  0  0  0  0
    7.2921   -0.5277    0.0000 C   0  0  0  0  0  0  0  0  0  0  0  0
    7.9790   -0.1168    0.0000 C   0  0  0  0  0  0  0  0  0  0  0  0
    8.6151   -0.5109    0.0000 C   0  0  0  0  0  0  0  0  0  0  0  0
    9.3117   -0.1082    0.0000 C   0  0  0  0  0  0  0  0  0  0  0  0
   10.0012   -0.5302    0.0000 C   0  0  0  0  0  0  0  0  0  0  0  0
    9.9777   -1.4486    0.0000 N   0  0  0  0  0  0  0  0  0  0  0  0
    8.5940   -1.4605    0.0000 C   0  0  0  0  0  0  0  0  0  0  0  0
    9.2640   -1.8532    0.0000 C   0  0  0  0  0  0  0  0  0  0  0  0
    7.9478   -1.9163    0.0000 C   0  0  0  0  0  0  0  0  0  0  0  0
    5.8497   -3.0720    0.0000 C   0  0  0  0  0  0  0  0  0  0  0  0
    6.5840   -2.7696    0.0000 C   0  0  0  0  0  0  0  0  0  0  0  0
    5.3566   -2.4717    0.0000 C   0  0  0  0  0  0  0  0  0  0  0  0
    4.6724   -2.3280    0.0000 C   0  0  1  0  0  0  0  0  0  0  0  0
    4.2967   -3.1131    0.0000 C   0  0  0  0  0  0  0  0  0  0  0  0
    3.5000   -1.5112    0.0000 C   0  0  0  0  0  0  0  0  0  0  0  0
    3.5366   -3.3262    0.0000 C   0  0  0  0  0  0  0  0  0  0  0  0
    1.0041   -2.9956    0.0000 O   0  0  0  0  0  0  0  0  0  0  0  0
    0.5419   -2.6647    0.0000 C   0  0  0  0  0  0  0  0  0  0  0  0
    3.6554   -2.2609    0.0000 O   0  0  0  0  0  0  0  0  0  0  0  0
  2  1  1  0  0  0  0
  2  6  1  0  0  0  0
  2 29  1  0  0  0  0
  2 32  1  6  0  0  0
  3  1  1  0  0  0  0
  4  5  1  0  0  0  0
  4  6  1  0  0  0  0
  5  3  1  0  0  0  0
  6 28  2  0  0  0  0
  7  8  2  0  0  0  0
  8  9  1  0  0  0  0
  9 10  1  0  0  0  0
 10 12  1  0  0  0  0
 11 10  1  0  0  0  0
 12 13  1  0  0  0  0
 13 22  2  0  0  0  0
 14 15  2  0  0  0  0
 14 13  1  0  0  0  0
 16 15  1  0  0  0  0
 16 17  1  0  0  0  0
 17 18  2  0  0  0  0
 19 18  1  0  0  0  0
 20 16  2  0  0  0  0
 20 21  1  0  0  0  0
 21 19  2  0  0  0  0
 22 20  1  0  0  0  0
 23 24  1  0  0  0  0
 23 25  1  0  0  0  0
 24 12  1  0  0  0  0
 26 25  1  0  0  0  0
 25 10  1  0  0  0  0
 26 27  1  0  0  0  0
 26  7  1  0  0  0  0
 26 32  1  6  0  0  0
 28  7  1  0  0  0  0
 29 27  1  0  0  0  0
 30 31  1  0  0  0  0
 30  3  1  0  0  0  0
M  END
> <ID>
SCHEMBL21136747

> <InChIKey>
IJEWWYTUZYNMIK-CIJHQVBOSA-N

> <MW>
427.588

> <Series_Name>
Series_16

$$$$
SCHEMBL21136756
  Mrv1719007171904192D 0   0.00000     0.00000     0

 36 43  0  0  0  0              1 V2000 
    0.0000    0.7838    0.0000 F   0  0  0  0  0  0  0  0  0  0  0  0
    6.0747    1.8290    0.0000 C   0  0  1  0  0  0  0  0  0  0  0  0
   10.3411    3.4837    0.0000 C   0  0  0  0  0  0  0  0  0  0  0  0
    9.6534    3.8779    0.0000 C   0  0  0  0  0  0  0  0  0  0  0  0
    8.9796    3.5341    0.0000 C   0  0  0  0  0  0  0  0  0  0  0  0
    8.8833    2.6357    0.0000 C   0  0  0  0  0  0  0  0  0  0  0  0
   11.7711    3.4653    0.0000 C   0  0  0  0  0  0  0  0  0  0  0  0
   11.0836    3.8779    0.0000 C   0  0  0  0  0  0  0  0  0  0  0  0
   10.3318    2.6494    0.0000 C   0  0  0  0  0  0  0  0  0  0  0  0
    7.4223    2.5028    0.0000 C   0  0  0  0  0  0  0  0  0  0  0  0
    7.0407    3.2040    0.0000 C   0  0  0  0  0  0  0  0  0  0  0  0
    6.2981    3.2728    0.0000 C   0  0  0  0  0  0  0  0  0  0  0  0
    5.7389    2.5991    0.0000 C   0  0  0  0  0  0  0  0  0  0  0  0
    4.9092    2.7641    0.0000 C   0  0  0  0  0  0  0  0  0  0  0  0
    4.2813    2.2552    0.0000 C   0  0  0  0  0  0  0  0  0  0  0  0
    3.6029    2.6540    0.0000 C   0  0  0  0  0  0  0  0  0  0  0  0
    2.8603    2.2552    0.0000 C   0  0  0  0  0  0  0  0  0  0  0  0
    2.8511    1.4256    0.0000 C   0  0  0  0  0  0  0  0  0  0  0  0
   11.0423    2.2277    0.0000 C   0  0  0  0  0  0  0  0  0  0  0  0
    9.5984    2.2277    0.0000 C   0  0  0  0  0  0  0  0  0  0  0  0
    8.1912    2.2185    0.0000 C   0  0  0  0  0  0  0  0  0  0  0  0
    6.9490    1.7602    0.0000 C   0  0  0  0  0  0  0  0  0  0  0  0
    8.0583    1.3476    0.0000 C   0  0  0  0  0  0  0  0  0  0  0  0
    7.3982    1.1276    0.0000 C   0  0  0  0  0  0  0  0  0  0  0  0
    5.7343    1.0864    0.0000 C   0  0  0  0  0  0  0  0  0  0  0  0
    4.9780    0.9075    0.0000 C   0  0  0  0  0  0  0  0  0  0  0  0
    3.5891    1.0176    0.0000 C   0  0  0  0  0  0  0  0  0  0  0  0
    1.3613    1.3202    0.0000 C   0  0  0  0  0  0  0  0  0  0  0  0
    1.2514    0.0000    0.0000 C   0  0  0  0  0  0  0  0  0  0  0  0
    2.0214    0.1650    0.0000 C   0  0  0  0  0  0  0  0  0  0  0  0
    0.8251    0.6670    0.0000 C   0  0  2  0  0  0  0  0  0  0  0  0
    4.3523    1.4554    0.0000 C   0  0  0  0  0  0  0  0  0  0  0  0
    4.9711    1.8083    0.0000 O   0  0  0  0  0  0  0  0  0  0  0  0
   11.7711    2.6265    0.0000 N   0  0  0  0  0  0  0  0  0  0  0  0
    2.1177    0.9832    0.0000 N   0  0  0  0  0  0  0  0  0  0  0  0
    7.8770    3.0284    0.0000 C   0  0  0  0  0  0  0  0  0  0  0  0
  3  4  1  0  0  0  0
  4  5  2  0  0  0  0
  5  6  1  0  0  0  0
  7  8  2  0  0  0  0
  3  8  1  0  0  0  0
  3  9  2  0  0  0  0
 10 11  1  0  0  0  0
 11 12  1  0  0  0  0
 12 13  2  0  0  0  0
  2 13  1  0  0  0  0
 13 14  1  0  0  0  0
 14 15  2  0  0  0  0
 15 16  1  0  0  0  0
 16 17  1  0  0  0  0
 17 18  1  0  0  0  0
  9 19  1  0  0  0  0
  9 20  1  0  0  0  0
  6 20  2  0  0  0  0
  6 21  1  0  0  0  0
 10 21  1  0  0  0  0
 10 22  1  0  0  0  0
  2 22  1  0  0  0  0
 21 23  1  0  0  0  0
 23 24  1  0  0  0  0
 22 24  1  0  0  0  0
  2 25  1  0  0  0  0
 25 26  1  0  0  0  0
 18 27  1  0  0  0  0
 29 30  1  0  0  0  0
 31 28  1  0  0  0  0
 31 29  1  0  0  0  0
 15 32  1  0  0  0  0
 26 32  1  0  0  0  0
 27 32  1  0  0  0  0
  2 33  1  6  0  0  0
 32 33  1  0  0  0  0
  7 34  1  0  0  0  0
 19 34  2  0  0  0  0
 18 35  1  0  0  0  0
 28 35  1  0  0  0  0
 30 35  1  0  0  0  0
 31  1  1  6  0  0  0
 10 36  1  0  0  0  0
M  END
> <ID>
SCHEMBL21136756

> <InChIKey>
VYYFAFIWFXKITP-BUSSTUODSA-N

> <MW>
484.659

> <Series_Name>
Series_16

$$$$
SCHEMBL21136758
  Mrv1719007171904192D 0   0.00000     0.00000     0

 36 44  0  0  1  0              1 V2000 
    0.1010   -3.4042    0.0000 C   0  0  0  0  0  0  0  0  0  0  0  0
    0.6016   -2.9206    0.0000 C   0  0  0  0  0  0  0  0  0  0  0  0
    1.3386   -3.1324    0.0000 N   0  0  0  0  0  0  0  0  0  0  0  0
    0.5956   -3.2526    0.0000 C   0  0  0  0  0  0  0  0  0  0  0  0
    1.1288   -3.9921    0.0000 C   0  0  0  0  0  0  0  0  0  0  0  0
    0.5117   -4.1638    0.0000 C   0  0  0  0  0  0  0  0  0  0  0  0
    3.4485   -2.6852    0.0000 C   0  0  1  0  0  0  0  0  0  0  0  0
    2.7073   -3.0872    0.0000 C   0  0  0  0  0  0  0  0  0  0  0  0
    2.0207   -2.7224    0.0000 C   0  0  2  0  0  0  0  0  0  0  0  0
    2.0707   -1.8182    0.0000 C   0  0  0  0  0  0  0  0  0  0  0  0
    2.7804   -1.4275    0.0000 C   0  0  0  0  0  0  0  0  0  0  0  0
    3.4422   -1.7907    0.0000 C   0  0  0  0  0  0  0  0  0  0  0  0
    4.0832   -1.2601    0.0000 C   0  0  0  0  0  0  0  0  0  0  0  0
    4.8618   -1.4438    0.0000 C   0  0  0  0  0  0  0  0  0  0  0  0
    5.3282   -0.7356    0.0000 C   0  0  0  0  0  0  0  0  0  0  0  0
    6.1543   -0.8315    0.0000 C   0  0  0  0  0  0  0  0  0  0  0  0
    6.5037   -1.5409    0.0000 C   0  0  0  0  0  0  0  0  0  0  0  0
    7.0545   -0.8835    0.0000 C   0  0  0  0  0  0  0  0  0  0  0  0
   10.0526   -0.1121    0.0000 C   0  0  0  0  0  0  0  0  0  0  0  0
    9.2589   -0.5113    0.0000 C   0  0  0  0  0  0  0  0  0  0  0  0
   10.6992   -0.5252    0.0000 C   0  0  0  0  0  0  0  0  0  0  0  0
   10.6822   -1.4056    0.0000 N   0  0  0  0  0  0  0  0  0  0  0  0
    9.3080   -1.4176    0.0000 C   0  0  0  0  0  0  0  0  0  0  0  0
   10.0252   -1.8391    0.0000 C   0  0  0  0  0  0  0  0  0  0  0  0
    8.5844   -1.8289    0.0000 C   0  0  0  0  0  0  0  0  0  0  0  0
    7.8971   -1.4219    0.0000 C   0  0  0  0  0  0  0  0  0  0  0  0
    7.2377   -1.8254    0.0000 C   0  0  0  0  0  0  0  0  0  0  0  0
    5.2870   -2.2443    0.0000 C   0  0  2  0  0  0  0  0  0  0  0  0
    4.8779   -3.0150    0.0000 C   0  0  0  0  0  0  0  0  0  0  0  0
    4.0761   -3.2092    0.0000 C   0  0  0  0  0  0  0  0  0  0  0  0
    7.2101   -2.7004    0.0000 C   0  0  0  0  0  0  0  0  0  0  0  0
    6.4861   -2.9841    0.0000 C   0  0  0  0  0  0  0  0  0  0  0  0
    6.0304   -2.2975    0.0000 C   0  0  2  0  0  0  0  0  0  0  0  0
    8.6175   -0.1150    0.0000 C   0  0  0  0  0  0  0  0  0  0  0  0
    7.9347   -0.5375    0.0000 C   0  0  0  0  0  0  0  0  0  0  0  0
    4.2167   -2.2087    0.0000 O   0  0  0  0  0  0  0  0  0  0  0  0
  1  2  1  0  0  0  0
  1  6  1  0  0  0  0
  2  3  1  0  0  0  0
  2  4  1  0  0  0  0
  3  5  1  0  0  0  0
  5  4  1  0  0  0  0
  6  5  1  0  0  0  0
  7  8  1  0  0  0  0
  7 12  1  0  0  0  0
  7 30  1  0  0  0  0
  7 36  1  6  0  0  0
  9  8  1  0  0  0  0
  9  3  1  1  0  0  0
 10 11  1  0  0  0  0
  9 10  1  0  0  0  0
 12 13  2  0  0  0  0
 12 11  1  0  0  0  0
 13 14  1  0  0  0  0
 14 15  2  0  0  0  0
 15 16  1  0  0  0  0
 17 18  1  0  0  0  0
 17 27  1  0  0  0  0
 17 16  1  0  0  0  0
 19 20  1  0  0  0  0
 19 21  2  0  0  0  0
 20 23  2  0  0  0  0
 22 21  1  0  0  0  0
 23 24  1  0  0  0  0
 23 25  1  0  0  0  0
 24 22  2  0  0  0  0
 26 25  2  0  0  0  0
 26 35  1  0  0  0  0
 27 26  1  0  0  0  0
 28 29  1  0  0  0  0
 28 14  1  0  0  0  0
 33 28  1  0  0  0  0
 28 36  1  6  0  0  0
 29 30  1  0  0  0  0
 31 27  1  0  0  0  0
 32 31  1  0  0  0  0
 33 32  1  1  0  0  0
 33 17  1  0  0  0  0
 34 20  1  0  0  0  0
 35 34  2  0  0  0  0
M  END
> <ID>
SCHEMBL21136758

> <InChIKey>
XELRPJMIOGLDIB-GGZGXLQSSA-N

> <MW>
478.68

> <Series_Name>
Series_16

$$$$
SCHEMBL21136759
  Mrv1719007171904192D 0   0.00000     0.00000     0

 36 44  0  0  0  0              1 V2000 
    5.1044    1.9289    0.0000 C   0  0  2  0  0  0  0  0  0  0  0  0
    9.2562    3.6664    0.0000 C   0  0  0  0  0  0  0  0  0  0  0  0
    8.5670    4.0943    0.0000 C   0  0  0  0  0  0  0  0  0  0  0  0
    7.8644    3.6619    0.0000 C   0  0  0  0  0  0  0  0  0  0  0  0
   10.6615    3.6754    0.0000 C   0  0  0  0  0  0  0  0  0  0  0  0
   10.0129    4.0943    0.0000 C   0  0  0  0  0  0  0  0  0  0  0  0
    9.2562    2.7791    0.0000 C   0  0  0  0  0  0  0  0  0  0  0  0
    6.4084    2.6485    0.0000 C   0  0  0  0  0  0  0  0  0  0  0  0
    6.0537    3.3781    0.0000 C   0  0  0  0  0  0  0  0  0  0  0  0
    5.4186    3.4592    0.0000 C   0  0  0  0  0  0  0  0  0  0  0  0
    4.7744    2.7520    0.0000 C   0  0  0  0  0  0  0  0  0  0  0  0
    3.9728    2.9322    0.0000 C   0  0  0  0  0  0  0  0  0  0  0  0
    3.3286    2.4053    0.0000 C   0  0  0  0  0  0  0  0  0  0  0  0
    1.9459    2.3783    0.0000 C   0  0  0  0  0  0  0  0  0  0  0  0
    1.9323    1.4955    0.0000 C   0  0  0  0  0  0  0  0  0  0  0  0
    8.5806    2.3647    0.0000 C   0  0  0  0  0  0  0  0  0  0  0  0
    7.1572    2.3602    0.0000 C   0  0  0  0  0  0  0  0  0  0  0  0
    7.1482    1.4864    0.0000 C   0  0  0  0  0  0  0  0  0  0  0  0
    6.4118    1.2026    0.0000 C   0  0  0  0  0  0  0  0  0  0  0  0
    9.9453    2.3647    0.0000 C   0  0  0  0  0  0  0  0  0  0  0  0
    4.7564    1.1486    0.0000 C   0  0  0  0  0  0  0  0  0  0  0  0
    4.0538    0.9729    0.0000 C   0  0  0  0  0  0  0  0  0  0  0  0
    2.6890    1.0945    0.0000 C   0  0  0  0  0  0  0  0  0  0  0  0
    0.4639    1.2567    0.0000 C   0  0  0  0  0  0  0  0  0  0  0  0
    0.0000    0.7703    0.0000 C   0  0  0  0  0  0  0  0  0  0  0  0
    0.6891    0.4459    0.0000 C   0  0  0  0  0  0  0  0  0  0  0  0
    0.3783    0.0000    0.0000 C   0  0  0  0  0  0  0  0  0  0  0  0
    7.7630    2.7566    0.0000 C   0  0  0  0  0  0  0  0  0  0  0  0
    2.6755    2.7701    0.0000 C   0  0  0  0  0  0  0  0  0  0  0  0
    5.9020    1.7867    0.0000 C   0  0  0  0  0  0  0  0  0  0  0  0
    3.3849    1.5584    0.0000 C   0  0  0  0  0  0  0  0  0  0  0  0
    1.0743    0.2499    0.0000 C   0  0  0  0  0  0  0  0  0  0  0  0
    1.2297    1.0337    0.0000 N   0  0  0  0  0  0  0  0  0  0  0  0
    4.1349    1.9661    0.0000 O   0  0  0  0  0  0  0  0  0  0  0  0
   10.6615    2.7769    0.0000 N   0  0  0  0  0  0  0  0  0  0  0  0
    6.8594    3.1396    0.0000 C   0  0  0  0  0  0  0  0  0  0  0  0
  2  3  1  0  0  0  0
  3  4  2  0  0  0  0
  5  6  2  0  0  0  0
  2  6  1  0  0  0  0
  2  7  2  0  0  0  0
  8  9  1  0  0  0  0
  9 10  1  0  0  0  0
 10 11  2  0  0  0  0
  1 11  1  0  0  0  0
 11 12  1  0  0  0  0
 12 13  2  0  0  0  0
 14 15  1  0  0  0  0
  7 16  1  0  0  0  0
  8 17  1  0  0  0  0
 17 18  1  0  0  0  0
 18 19  1  0  0  0  0
  7 20  1  0  0  0  0
  1 21  1  0  0  0  0
 21 22  1  0  0  0  0
 15 23  1  0  0  0  0
 24 25  1  0  0  0  0
 24 26  1  0  0  0  0
 25 27  1  0  0  0  0
  4 28  1  0  0  0  0
 16 28  2  0  0  0  0
 17 28  1  0  0  0  0
 14 29  1  0  0  0  0
 13 29  1  0  0  0  0
  8 30  1  0  0  0  0
 19 30  1  0  0  0  0
  1 30  1  0  0  0  0
 13 31  1  0  0  0  0
 22 31  1  0  0  0  0
 23 31  1  0  0  0  0
 26 32  1  0  0  0  0
 27 32  1  0  0  0  0
 15 33  1  0  0  0  0
 24 33  1  0  0  0  0
 32 33  1  0  0  0  0
  1 34  1  6  0  0  0
 31 34  1  0  0  0  0
  5 35  1  0  0  0  0
 20 35  2  0  0  0  0
  8 36  1  0  0  0  0
M  END
> <ID>
SCHEMBL21136759

> <InChIKey>
XELRPJMIOGLDIB-CXMMCHEBSA-N

> <MW>
478.68

> <Series_Name>
Series_16

$$$$
SCHEMBL21136764
  Mrv1719007171904202D 0   0.00000     0.00000     0

 39 46  0  0  1  0              1 V2000 
    1.4068   -3.4760    0.0000 C   0  0  0  0  0  0  0  0  0  0  0  0
    0.3823   -3.4177    0.0000 O   0  0  0  0  0  0  0  0  0  0  0  0
    1.9197   -2.8688    0.0000 C   0  0  0  0  0  0  0  0  0  0  0  0
    2.6374   -3.2304    0.0000 N   0  0  0  0  0  0  0  0  0  0  0  0
    2.5801   -4.0968    0.0000 C   0  0  1  0  0  0  0  0  0  0  0  0
    1.7790   -4.2824    0.0000 C   0  0  0  0  0  0  0  0  0  0  0  0
    4.0207   -3.1907    0.0000 C   0  0  0  0  0  0  0  0  0  0  0  0
    3.3467   -2.7779    0.0000 C   0  0  0  0  0  0  0  0  0  0  0  0
    3.3429   -1.9005    0.0000 C   0  0  0  0  0  0  0  0  0  0  0  0
    4.0341   -1.4501    0.0000 C   0  0  0  0  0  0  0  0  0  0  0  0
    4.7520   -1.8790    0.0000 C   0  0  0  0  0  0  0  0  0  0  0  0
    5.3566   -1.3463    0.0000 C   0  0  0  0  0  0  0  0  0  0  0  0
    6.1489   -1.5269    0.0000 C   0  0  0  0  0  0  0  0  0  0  0  0
    6.5960   -0.8004    0.0000 C   0  0  0  0  0  0  0  0  0  0  0  0
    8.3414   -0.9676    0.0000 C   0  0  0  0  0  0  0  0  0  0  0  0
    7.7598   -1.5955    0.0000 C   0  0  0  0  0  0  0  0  0  0  0  0
    8.5079   -1.9029    0.0000 C   0  0  1  0  0  0  0  0  0  0  0  0
    9.2235   -1.4859    0.0000 C   0  0  0  0  0  0  0  0  0  0  0  0
    9.2164   -0.5851    0.0000 C   0  0  0  0  0  0  0  0  0  0  0  0
    9.9010   -0.1523    0.0000 C   0  0  0  0  0  0  0  0  0  0  0  0
   10.5877   -0.5617    0.0000 C   0  0  0  0  0  0  0  0  0  0  0  0
   11.3465   -0.1413    0.0000 C   0  0  0  0  0  0  0  0  0  0  0  0
   11.9905   -0.5729    0.0000 C   0  0  0  0  0  0  0  0  0  0  0  0
   11.9541   -1.4670    0.0000 N   0  0  0  0  0  0  0  0  0  0  0  0
   11.2841   -1.9102    0.0000 C   0  0  0  0  0  0  0  0  0  0  0  0
   10.5899   -1.4675    0.0000 C   0  0  0  0  0  0  0  0  0  0  0  0
    9.8945   -1.9018    0.0000 C   0  0  0  0  0  0  0  0  0  0  0  0
    6.4487   -2.3510    0.0000 C   0  0  1  0  0  0  0  0  0  0  0  0
    6.1388   -3.1233    0.0000 C   0  0  0  0  0  0  0  0  0  0  0  0
    5.3220   -3.2948    0.0000 C   0  0  0  0  0  0  0  0  0  0  0  0
    4.7422   -2.7609    0.0000 C   0  0  1  0  0  0  0  0  0  0  0  0
    5.4777   -2.2785    0.0000 O   0  0  0  0  0  0  0  0  0  0  0  0
    8.4842   -2.7919    0.0000 C   0  0  0  0  0  0  0  0  0  0  0  0
    7.3188   -2.3806    0.0000 C   0  0  2  0  0  0  0  0  0  0  0  0
    7.7409   -3.0763    0.0000 C   0  0  0  0  0  0  0  0  0  0  0  0
    7.4015   -0.8604    0.0000 C   0  0  0  0  0  0  0  0  0  0  0  0
    3.0541   -4.3862    0.0000 C   0  0  0  0  0  0  0  0  0  0  0  0
    3.0405   -4.9414    0.0000 O   0  0  0  0  0  0  0  0  0  0  0  0
    3.5418   -4.1204    0.0000 O   0  0  0  0  0  0  0  0  0  0  0  0
  1  2  1  0  0  0  0
  3  4  1  0  0  0  0
  3  1  1  0  0  0  0
  5  4  1  0  0  0  0
  4  8  1  0  0  0  0
  5 37  1  6  0  0  0
  5  6  1  0  0  0  0
  6  1  1  0  0  0  0
  7  8  1  0  0  0  0
 31  7  1  0  0  0  0
  9 10  1  0  0  0  0
  9  8  1  0  0  0  0
 10 11  1  0  0  0  0
 11 12  2  0  0  0  0
 12 13  1  0  0  0  0
 13 14  2  0  0  0  0
 14 36  1  0  0  0  0
 15 16  1  0  0  0  0
 34 16  1  0  0  0  0
 16 36  1  0  0  0  0
 17 16  1  0  0  0  0
 17 18  1  1  0  0  0
 18 27  2  0  0  0  0
 19 20  2  0  0  0  0
 19 18  1  0  0  0  0
 20 21  1  0  0  0  0
 21 26  2  0  0  0  0
 22 21  1  0  0  0  0
 22 23  2  0  0  0  0
 24 23  1  0  0  0  0
 25 26  1  0  0  0  0
 25 24  2  0  0  0  0
 26 27  1  0  0  0  0
 28 29  1  0  0  0  0
 28 32  1  6  0  0  0
 28 13  1  0  0  0  0
 29 30  1  0  0  0  0
 31 30  1  0  0  0  0
 31 11  1  0  0  0  0
 31 32  1  6  0  0  0
 17 33  1  0  0  0  0
 34 35  1  1  0  0  0
 34 28  1  0  0  0  0
 35 33  1  0  0  0  0
 37 38  2  0  0  0  0
 37 39  1  0  0  0  0
M  END
> <ID>
SCHEMBL21136764

> <InChIKey>
ILQBCFGXKUEURP-KUZBAGMESA-N

> <MW>
526.677

> <Series_Name>
Series_16

$$$$
SCHEMBL21136769
  Mrv1719007171904202D 0   0.00000     0.00000     0

 33 39  0  0  0  0              1 V2000 
   16.2160    1.4887    0.0000 O   0  0  0  0  0  0  0  0  0  0  0  0
   19.1221    2.6958    0.0000 C   0  0  0  0  0  0  0  0  0  0  0  0
   17.3190    1.5192    0.0000 C   0  0  2  0  0  0  0  0  0  0  0  0
   21.6904    3.1444    0.0000 C   0  0  0  0  0  0  0  0  0  0  0  0
   20.9325    3.5459    0.0000 C   0  0  0  0  0  0  0  0  0  0  0  0
   20.3235    3.2210    0.0000 C   0  0  0  0  0  0  0  0  0  0  0  0
   20.1881    2.3098    0.0000 C   0  0  0  0  0  0  0  0  0  0  0  0
   23.1250    3.1399    0.0000 C   0  0  0  0  0  0  0  0  0  0  0  0
   22.4483    3.5323    0.0000 C   0  0  0  0  0  0  0  0  0  0  0  0
   21.6814    2.3233    0.0000 C   0  0  0  0  0  0  0  0  0  0  0  0
   18.6859    2.1789    0.0000 C   0  0  0  0  0  0  0  0  0  0  0  0
   18.3069    2.8827    0.0000 C   0  0  0  0  0  0  0  0  0  0  0  0
   17.6437    2.9369    0.0000 C   0  0  0  0  0  0  0  0  0  0  0  0
   16.9851    2.2737    0.0000 C   0  0  0  0  0  0  0  0  0  0  0  0
   16.1550    2.4361    0.0000 C   0  0  0  0  0  0  0  0  0  0  0  0
   15.5054    1.9399    0.0000 C   0  0  0  0  0  0  0  0  0  0  0  0
   14.8152    2.3278    0.0000 C   0  0  0  0  0  0  0  0  0  0  0  0
   14.0437    1.9218    0.0000 C   0  0  0  0  0  0  0  0  0  0  0  0
   14.0212    1.1053    0.0000 C   0  0  0  0  0  0  0  0  0  0  0  0
   22.3807    1.9218    0.0000 C   0  0  0  0  0  0  0  0  0  0  0  0
   20.9055    1.9218    0.0000 C   0  0  0  0  0  0  0  0  0  0  0  0
   19.4754    1.9128    0.0000 C   0  0  0  0  0  0  0  0  0  0  0  0
   19.4168    1.0692    0.0000 C   0  0  0  0  0  0  0  0  0  0  0  0
   18.6859    0.8120    0.0000 C   0  0  0  0  0  0  0  0  0  0  0  0
   18.2303    1.4616    0.0000 C   0  0  0  0  0  0  0  0  0  0  0  0
   15.5054    1.1053    0.0000 C   0  0  0  0  0  0  0  0  0  0  0  0
   16.9670    0.7715    0.0000 C   0  0  0  0  0  0  0  0  0  0  0  0
   16.2092    0.5955    0.0000 C   0  0  0  0  0  0  0  0  0  0  0  0
   14.7746    0.7038    0.0000 C   0  0  0  0  0  0  0  0  0  0  0  0
   12.5009    0.6902    0.0000 C   0  0  0  0  0  0  0  0  0  0  0  0
   12.8662    0.0000    0.0000 C   0  0  0  0  0  0  0  0  0  0  0  0
   13.2858    0.6835    0.0000 N   0  0  0  0  0  0  0  0  0  0  0  0
   23.1318    2.3143    0.0000 N   0  0  0  0  0  0  0  0  0  0  0  0
  4  5  1  0  0  0  0
  5  6  2  0  0  0  0
  6  7  1  0  0  0  0
  8  9  2  0  0  0  0
  4  9  1  0  0  0  0
  4 10  2  0  0  0  0
 11  2  1  0  0  0  0
 11 12  1  0  0  0  0
 12 13  1  0  0  0  0
 13 14  2  0  0  0  0
  3 14  1  0  0  0  0
 14 15  1  0  0  0  0
 15 16  2  0  0  0  0
 16 17  1  0  0  0  0
 17 18  1  0  0  0  0
 18 19  1  0  0  0  0
 10 20  1  0  0  0  0
 10 21  1  0  0  0  0
  7 21  2  0  0  0  0
  7 22  1  0  0  0  0
 11 22  1  0  0  0  0
 22 23  1  0  0  0  0
 23 24  1  0  0  0  0
 24 25  1  0  0  0  0
 11 25  1  0  0  0  0
  3 25  1  0  0  0  0
 16 26  1  0  0  0  0
  3 27  1  0  0  0  0
 27 28  1  0  0  0  0
 26 28  1  0  0  0  0
 26 29  1  0  0  0  0
 19 29  1  0  0  0  0
 30 31  1  0  0  0  0
 19 32  1  0  0  0  0
 30 32  1  0  0  0  0
 31 32  1  0  0  0  0
  8 33  1  0  0  0  0
 20 33  2  0  0  0  0
  3  1  1  6  0  0  0
M  END
> <ID>
SCHEMBL21136769

> <InChIKey>
NHBBVYPOFRLVPC-IHGFKOOWSA-N

> <MW>
440.631

> <Series_Name>
Series_16

$$$$
SCHEMBL21136770
  Mrv1719007171904202D 0   0.00000     0.00000     0

 35 38  0  0  0  0              1 V2000 
    2.2355   -0.2460    0.0000 F   0  0  0  0  0  0  0  0  0  0  0  0
    8.3374   -0.8014    0.0000 C   0  0  0  0  0  0  0  0  0  0  0  0
    2.9525   -0.6608    0.0000 F   0  0  0  0  0  0  0  0  0  0  0  0
    7.2899   -0.6889    0.0000 O   0  0  0  0  0  0  0  0  0  0  0  0
    9.4621   -1.0966    0.0000 C   0  0  0  0  0  0  0  0  0  0  0  0
    9.1528   -2.2074    0.0000 C   0  0  0  0  0  0  0  0  0  0  0  0
    0.9842   -2.6994    0.0000 O   0  0  0  0  0  0  0  0  0  0  0  0
    1.6168   -3.2970    0.0000 F   0  0  0  0  0  0  0  0  0  0  0  0
    5.0755   -5.1599    0.0000 C   0  0  0  0  0  0  0  0  0  0  0  0
    1.4903   -0.6280    0.0000 C   0  0  0  0  0  0  0  0  0  0  0  0
    0.7311   -0.2250    0.0000 C   0  0  0  0  0  0  0  0  0  0  0  0
    0.0422   -0.6327    0.0000 C   0  0  0  0  0  0  0  0  0  0  0  0
    0.0281   -1.4200    0.0000 C   0  0  0  0  0  0  0  0  0  0  0  0
    0.7592   -1.8512    0.0000 C   0  0  0  0  0  0  0  0  0  0  0  0
    1.4762   -1.4528    0.0000 C   0  0  0  0  0  0  0  0  0  0  0  0
    8.7310   -1.4974    0.0000 C   0  0  0  0  0  0  0  0  0  0  0  0
    2.9384   -1.4669    0.0000 C   0  0  0  0  0  0  0  0  0  0  0  0
    7.2220   -1.5137    0.0000 C   0  0  0  0  0  0  0  0  0  0  0  0
    2.2074   -1.8653    0.0000 C   0  0  0  0  0  0  0  0  0  0  0  0
    3.6555   -2.7041    0.0000 C   0  0  0  0  0  0  0  0  0  0  0  0
    3.6555   -1.8840    0.0000 C   0  0  0  0  0  0  0  0  0  0  0  0
    5.8207   -1.4903    0.0000 C   0  0  0  0  0  0  0  0  0  0  0  0
    5.2021   -1.8278    0.0000 C   0  0  0  0  0  0  0  0  0  0  0  0
    2.2121   -2.6901    0.0000 C   0  0  0  0  0  0  0  0  0  0  0  0
    6.5236   -2.7416    0.0000 C   0  0  0  0  0  0  0  0  0  0  0  0
    5.8347   -3.1213    0.0000 C   0  0  0  0  0  0  0  0  0  0  0  0
    2.9244   -3.1025    0.0000 C   0  0  0  0  0  0  0  0  0  0  0  0
    4.3725   -3.1165    0.0000 C   0  0  0  0  0  0  0  0  0  0  0  0
    4.3585   -3.9414    0.0000 C   0  0  0  0  0  0  0  0  0  0  0  0
    3.6696   -4.3304    0.0000 C   0  0  0  0  0  0  0  0  0  0  0  0
    2.9103   -3.9508    0.0000 N   0  0  0  0  0  0  0  0  0  0  0  0
    6.5518   -1.9191    0.0000 N   0  0  0  0  0  0  0  0  0  0  0  0
    8.0070   -1.9332    0.0000 O   0  0  0  0  0  0  0  0  0  0  0  0
    5.4762   -4.1406    0.0000 N   0  0  0  0  0  0  0  0  0  0  0  0
    5.0966   -2.7346    0.0000 N   0  0  0  0  0  0  0  0  0  0  0  0
  1 10  1  0  0  0  0
 10 11  2  0  0  0  0
 11 12  1  0  0  0  0
 12 13  2  0  0  0  0
 13 14  1  0  0  0  0
  7 14  1  0  0  0  0
 10 15  1  0  0  0  0
 14 15  2  0  0  0  0
  2 16  1  0  0  0  0
  5 16  1  0  0  0  0
  6 16  1  0  0  0  0
  3 17  1  0  0  0  0
  4 18  2  0  0  0  0
 15 19  1  0  0  0  0
 17 19  1  0  0  0  0
 20 21  1  0  0  0  0
 17 21  2  0  0  0  0
 22 23  1  0  0  0  0
 19 24  2  0  0  0  0
  8 24  1  0  0  0  0
 25 26  1  0  0  0  0
 24 27  1  0  0  0  0
 20 27  2  0  0  0  0
 20 28  1  0  0  0  0
 28 29  2  0  0  0  0
 29 30  1  0  0  0  0
 27 31  1  0  0  0  0
 30 31  2  0  0  0  0
 18 32  1  0  0  0  0
 22 32  1  0  0  0  0
 25 32  1  0  0  0  0
 16 33  1  0  0  0  0
 18 33  1  0  0  0  0
  9 34  1  0  0  0  0
 29 34  1  0  0  0  0
 23 35  1  0  0  0  0
 26 35  1  0  0  0  0
 28 35  1  0  0  0  0
M  END
> <ID>
SCHEMBL21136770

> <InChIKey>
ZQSYSHVWFDKANK-UHFFFAOYSA-N

> <MW>
488.511

> <Series_Name>
Series_17

$$$$
SCHEMBL21136778
  Mrv1719007171904212D 0   0.00000     0.00000     0

 33 38  0  0  1  0              1 V2000 
    6.8394   -3.1675    0.0000 N   0  0  0  0  0  0  0  0  0  0  0  0
    7.1554   -3.9213    0.0000 C   0  0  0  0  0  0  0  0  0  0  0  0
    5.7167   -2.2862    0.0000 C   0  0  0  0  0  0  0  0  0  0  0  0
    6.0203   -3.0399    0.0000 C   0  0  0  0  0  0  0  0  0  0  0  0
    4.8782   -2.1604    0.0000 C   0  0  0  0  0  0  0  0  0  0  0  0
    4.3597   -2.7974    0.0000 C   0  0  0  0  0  0  0  0  0  0  0  0
    4.6391   -3.5599    0.0000 N   0  0  0  0  0  0  0  0  0  0  0  0
    3.5237   -2.6721    0.0000 C   0  0  0  0  0  0  0  0  0  0  0  0
    2.9992   -3.3076    0.0000 F   0  0  0  0  0  0  0  0  0  0  0  0
    3.2300   -1.9165    0.0000 C   0  0  0  0  0  0  0  0  0  0  0  0
    1.8579   -2.4317    0.0000 C   0  0  0  0  0  0  0  0  0  0  0  0
    2.3875   -1.7991    0.0000 C   0  0  0  0  0  0  0  0  0  0  0  0
    1.2333   -3.6019    0.0000 N   0  0  0  0  0  0  0  0  0  0  0  0
    1.9905   -3.2267    0.0000 C   0  0  0  0  0  0  0  0  0  0  0  0
    0.4345   -3.0413    0.0000 N   0  0  0  0  0  0  0  0  0  0  0  0
    1.0412   -2.3021    0.0000 C   0  0  0  0  0  0  0  0  0  0  0  0
    0.7463   -1.5301    0.0000 C   0  0  0  0  0  0  0  0  0  0  0  0
    1.2486   -0.9303    0.0000 C   0  0  0  0  0  0  0  0  0  0  0  0
    2.6254   -0.4064    0.0000 C   0  0  0  0  0  0  0  0  0  0  0  0
    2.0240   -1.0318    0.0000 C   0  0  0  0  0  0  0  0  0  0  0  0
    3.7471   -1.2878    0.0000 C   0  0  0  0  0  0  0  0  0  0  0  0
    3.2963   -0.5431    0.0000 Cl  0  0  0  0  0  0  0  0  0  0  0  0
    4.5809   -1.4171    0.0000 C   0  0  0  0  0  0  0  0  0  0  0  0
    6.2228   -1.6678    0.0000 N   0  0  0  0  0  0  0  0  0  0  0  0
    5.5018   -3.6720    0.0000 C   0  0  0  0  0  0  0  0  0  0  0  0
    7.0589   -1.7918    0.0000 C   0  0  1  0  0  0  0  0  0  0  0  0
    7.3580   -2.5694    0.0000 C   0  0  0  0  0  0  0  0  0  0  0  0
    8.1849   -2.6629    0.0000 O   0  0  0  0  0  0  0  0  0  0  0  0
    5.9508   -0.9120    0.0000 C   0  0  0  0  0  0  0  0  0  0  0  0
    6.4662   -0.2707    0.0000 C   0  0  0  0  0  0  0  0  0  0  0  0
    7.2739   -0.4064    0.0000 N   0  0  0  0  0  0  0  0  0  0  0  0
    7.6024   -1.1276    0.0000 C   0  0  0  0  0  0  0  0  0  0  0  0
    7.5472   -0.0911    0.0000 C   0  0  0  0  0  0  0  0  0  0  0  0
  1  2  1  0  0  0  0
  1 27  1  0  0  0  0
  3  4  2  0  0  0  0
  4  1  1  0  0  0  0
  5  6  1  0  0  0  0
  5  3  1  0  0  0  0
  6  7  1  0  0  0  0
  7 25  2  0  0  0  0
  8  6  2  0  0  0  0
  8 10  1  0  0  0  0
  9  8  1  0  0  0  0
 10 21  2  0  0  0  0
 11 12  1  0  0  0  0
 11 14  1  0  0  0  0
 12 10  1  0  0  0  0
 13 14  2  0  0  0  0
 15 16  1  0  0  0  0
 15 13  1  0  0  0  0
 16 11  2  0  0  0  0
 17 16  1  0  0  0  0
 17 18  2  0  0  0  0
 18 20  1  0  0  0  0
 19 20  1  0  0  0  0
 20 12  2  0  0  0  0
 21 22  1  0  0  0  0
 21 23  1  0  0  0  0
 23  5  2  0  0  0  0
 24  3  1  0  0  0  0
 24 29  1  0  0  0  0
 25  4  1  0  0  0  0
 26 27  1  0  0  0  0
 26 24  1  6  0  0  0
 26 32  1  0  0  0  0
 27 28  2  0  0  0  0
 29 30  1  0  0  0  0
 30 31  1  0  0  0  0
 31 32  1  0  0  0  0
 33 31  1  0  0  0  0
M  END
> <ID>
SCHEMBL21136778

> <InChIKey>
AWFCLUUIAFLEQR-GOSISDBHSA-N

> <MW>
464.93

> <Series_Name>
Series_17

$$$$
SCHEMBL21136783
  Mrv1719007171904212D 0   0.00000     0.00000     0

 36 43  0  0  1  0              1 V2000 
    4.0778   -2.6388    0.0000 C   0  0  1  0  0  0  0  0  0  0  0  0
    3.3631   -3.0516    0.0000 C   0  0  0  0  0  0  0  0  0  0  0  0
    2.7005   -2.6363    0.0000 C   0  0  1  0  0  0  0  0  0  0  0  0
    3.3882   -1.3685    0.0000 C   0  0  0  0  0  0  0  0  0  0  0  0
    4.0830   -1.7762    0.0000 C   0  0  0  0  0  0  0  0  0  0  0  0
    4.7256   -1.2433    0.0000 C   0  0  0  0  0  0  0  0  0  0  0  0
    5.9809   -0.7162    0.0000 C   0  0  0  0  0  0  0  0  0  0  0  0
    6.7797   -0.8004    0.0000 C   0  0  0  0  0  0  0  0  0  0  0  0
    7.7454   -0.8872    0.0000 C   0  0  0  0  0  0  0  0  0  0  0  0
    7.1586   -1.5328    0.0000 C   0  0  0  0  0  0  0  0  0  0  0  0
    7.8916   -1.8011    0.0000 C   0  0  1  0  0  0  0  0  0  0  0  0
    8.5958   -0.5140    0.0000 C   0  0  0  0  0  0  0  0  0  0  0  0
    8.5863   -1.3970    0.0000 C   0  0  0  0  0  0  0  0  0  0  0  0
    9.2875   -0.0974    0.0000 C   0  0  0  0  0  0  0  0  0  0  0  0
    9.9937   -0.5149    0.0000 C   0  0  0  0  0  0  0  0  0  0  0  0
   10.6966   -0.1061    0.0000 C   0  0  0  0  0  0  0  0  0  0  0  0
   11.3945   -0.5095    0.0000 C   0  0  0  0  0  0  0  0  0  0  0  0
   11.3721   -1.3730    0.0000 N   0  0  0  0  0  0  0  0  0  0  0  0
    9.9979   -1.3750    0.0000 C   0  0  0  0  0  0  0  0  0  0  0  0
   10.7155   -1.7955    0.0000 C   0  0  0  0  0  0  0  0  0  0  0  0
    9.2536   -1.7955    0.0000 C   0  0  0  0  0  0  0  0  0  0  0  0
    7.8924   -2.6672    0.0000 C   0  0  0  0  0  0  0  0  0  0  0  0
    7.1244   -2.9315    0.0000 C   0  0  0  0  0  0  0  0  0  0  0  0
    4.7211   -3.1800    0.0000 C   0  0  0  0  0  0  0  0  0  0  0  0
    5.4982   -2.9940    0.0000 C   0  0  0  0  0  0  0  0  0  0  0  0
    5.8499   -2.2136    0.0000 C   0  0  1  0  0  0  0  0  0  0  0  0
    5.5204   -1.4365    0.0000 C   0  0  0  0  0  0  0  0  0  0  0  0
    2.6922   -1.7861    0.0000 C   0  0  0  0  0  0  0  0  0  0  0  0
    6.6699   -2.2511    0.0000 C   0  0  1  0  0  0  0  0  0  0  0  0
    1.2538   -2.6531    0.0000 C   0  0  0  0  0  0  0  0  0  0  0  0
    0.5095   -2.4005    0.0000 C   0  0  0  0  0  0  0  0  0  0  0  0
    0.6735   -1.6061    0.0000 O   0  0  0  0  0  0  0  0  0  0  0  0
    1.4837   -1.8234    0.0000 C   0  0  0  0  0  0  0  0  0  0  0  0
    1.9687   -3.2834    0.0000 N   0  0  0  0  0  0  0  0  0  0  0  0
    4.8571   -2.1760    0.0000 O   0  0  0  0  0  0  0  0  0  0  0  0
    0.3821   -3.1021    0.0000 C   0  0  0  0  0  0  0  0  0  0  0  0
  1  2  1  0  0  0  0
  1 35  1  6  0  0  0
  1  5  1  0  0  0  0
  3  2  1  0  0  0  0
  3 34  1  6  0  0  0
  4  5  1  0  0  0  0
  4 28  1  0  0  0  0
  5  6  2  0  0  0  0
  6 27  1  0  0  0  0
  7  8  1  0  0  0  0
  9 10  1  0  0  0  0
 11 10  1  0  0  0  0
 29 10  1  0  0  0  0
 10  8  1  0  0  0  0
 11 13  1  1  0  0  0
 12 13  1  0  0  0  0
 12 14  2  0  0  0  0
 13 21  2  0  0  0  0
 14 15  1  0  0  0  0
 15 19  2  0  0  0  0
 16 15  1  0  0  0  0
 16 17  2  0  0  0  0
 18 17  1  0  0  0  0
 19 20  1  0  0  0  0
 20 18  2  0  0  0  0
 21 19  1  0  0  0  0
 22 23  1  0  0  0  0
 11 22  1  0  0  0  0
  1 24  1  0  0  0  0
 24 25  1  0  0  0  0
 26 25  1  0  0  0  0
 26 27  1  0  0  0  0
 26 35  1  6  0  0  0
 27  7  2  0  0  0  0
  3 28  1  0  0  0  0
 29 23  1  1  0  0  0
 29 26  1  0  0  0  0
 30 31  1  0  0  0  0
 30 33  1  0  0  0  0
 30 34  1  0  0  0  0
 30 36  1  0  0  0  0
 31 32  1  0  0  0  0
 33 32  1  0  0  0  0
M  END
> <ID>
SCHEMBL21136783

> <InChIKey>
PIKHAEHKCRJAMY-GOVXMMRMSA-N

> <MW>
482.668

> <Series_Name>
Series_16

$$$$
SCHEMBL21136785
  Mrv1719007171904212D 0   0.00000     0.00000     0

 35 42  0  0  1  0              1 V2000 
    3.3777   -3.1402    0.0000 C   0  0  0  0  0  0  0  0  0  0  0  0
    2.6513   -2.7172    0.0000 C   0  0  0  0  0  0  0  0  0  0  0  0
    1.9406   -3.4027    0.0000 N   0  0  0  0  0  0  0  0  0  0  0  0
    2.6575   -1.8443    0.0000 C   0  0  0  0  0  0  0  0  0  0  0  0
    3.3488   -1.3991    0.0000 C   0  0  0  0  0  0  0  0  0  0  0  0
    4.0258   -1.8314    0.0000 C   0  0  0  0  0  0  0  0  0  0  0  0
    4.6689   -1.2919    0.0000 C   0  0  0  0  0  0  0  0  0  0  0  0
    5.4774   -1.4487    0.0000 C   0  0  0  0  0  0  0  0  0  0  0  0
    5.9202   -0.7627    0.0000 C   0  0  0  0  0  0  0  0  0  0  0  0
    6.7200   -0.8379    0.0000 C   0  0  0  0  0  0  0  0  0  0  0  0
    7.1000   -1.5462    0.0000 C   0  0  0  0  0  0  0  0  0  0  0  0
    7.8192   -1.8569    0.0000 C   0  0  0  0  0  0  0  0  0  0  0  0
    8.5109   -0.5351    0.0000 C   0  0  0  0  0  0  0  0  0  0  0  0
    8.5004   -1.4173    0.0000 C   0  0  0  0  0  0  0  0  0  0  0  0
    9.2011   -0.1011    0.0000 C   0  0  0  0  0  0  0  0  0  0  0  0
    9.9104   -0.5318    0.0000 C   0  0  0  0  0  0  0  0  0  0  0  0
   10.6103   -0.1009    0.0000 C   0  0  0  0  0  0  0  0  0  0  0  0
   11.2988   -0.5441    0.0000 C   0  0  0  0  0  0  0  0  0  0  0  0
   11.2846   -1.4488    0.0000 N   0  0  0  0  0  0  0  0  0  0  0  0
    9.9102   -1.4124    0.0000 C   0  0  0  0  0  0  0  0  0  0  0  0
   10.6053   -1.8568    0.0000 C   0  0  0  0  0  0  0  0  0  0  0  0
    9.1879   -1.8527    0.0000 C   0  0  0  0  0  0  0  0  0  0  0  0
    7.8221   -2.7426    0.0000 C   0  0  0  0  0  0  0  0  0  0  0  0
    7.0618   -3.0562    0.0000 C   0  0  0  0  0  0  0  0  0  0  0  0
    6.6160   -2.3399    0.0000 C   0  0  1  0  0  0  0  0  0  0  0  0
    5.4494   -3.0857    0.0000 C   0  0  0  0  0  0  0  0  0  0  0  0
    4.6616   -3.2806    0.0000 C   0  0  0  0  0  0  0  0  0  0  0  0
    4.0400   -2.7160    0.0000 C   0  0  1  0  0  0  0  0  0  0  0  0
    5.7972   -2.2899    0.0000 C   0  0  1  0  0  0  0  0  0  0  0  0
    1.2412   -2.7170    0.0000 C   0  0  0  0  0  0  0  0  0  0  0  0
    0.4969   -2.5063    0.0000 C   0  0  0  0  0  0  0  0  0  0  0  0
    0.6779   -1.6481    0.0000 O   0  0  0  0  0  0  0  0  0  0  0  0
    1.4688   -1.8809    0.0000 C   0  0  0  0  0  0  0  0  0  0  0  0
    0.3722   -3.2100    0.0000 C   0  0  0  0  0  0  0  0  0  0  0  0
    4.8116   -2.2595    0.0000 O   0  0  0  0  0  0  0  0  0  0  0  0
  1  2  1  0  0  0  0
 28  1  1  0  0  0  0
  3  2  1  0  0  0  0
  4  5  1  0  0  0  0
  4  2  1  0  0  0  0
  5  6  1  0  0  0  0
  6  7  2  0  0  0  0
  7  8  1  0  0  0  0
  8  9  2  0  0  0  0
  9 10  1  0  0  0  0
 10 11  1  0  0  0  0
 11 12  1  0  0  0  0
 12 14  1  0  0  0  0
 12 23  1  0  0  0  0
 13 14  1  0  0  0  0
 13 15  2  0  0  0  0
 14 22  2  0  0  0  0
 16 15  1  0  0  0  0
 16 17  1  0  0  0  0
 17 18  2  0  0  0  0
 19 18  1  0  0  0  0
 20 16  2  0  0  0  0
 20 21  1  0  0  0  0
 21 19  2  0  0  0  0
 22 20  1  0  0  0  0
 23 24  1  0  0  0  0
 25 24  1  1  0  0  0
 25 11  1  0  0  0  0
 26 27  1  0  0  0  0
 28 27  1  0  0  0  0
 28  6  1  0  0  0  0
 28 35  1  6  0  0  0
 29 26  1  0  0  0  0
 25 29  1  0  0  0  0
 29 35  1  6  0  0  0
 29  8  1  0  0  0  0
 30 31  1  0  0  0  0
 30 33  1  0  0  0  0
 30  3  1  0  0  0  0
 30 34  1  0  0  0  0
 31 32  1  0  0  0  0
 32 33  1  0  0  0  0
M  END
> <ID>
SCHEMBL21136785

> <InChIKey>
RZROVCHFMGROPG-ALKGSLHFSA-N

> <MW>
468.641

> <Series_Name>
Series_16

$$$$
SCHEMBL21136787
  Mrv1719007171904212D 0   0.00000     0.00000     0

 36 39  0  0  0  0              1 V2000 
    2.2159   -0.2525    0.0000 F   0  0  0  0  0  0  0  0  0  0  0  0
    3.0364   -0.6872    0.0000 Cl  0  0  0  0  0  0  0  0  0  0  0  0
    7.2088   -0.7223    0.0000 O   0  0  0  0  0  0  0  0  0  0  0  0
    1.4586   -3.1556    0.0000 C   0  0  0  0  0  0  0  0  0  0  0  0
    7.1808   -3.2117    0.0000 C   0  0  0  0  0  0  0  0  0  0  0  0
    7.8960   -3.6324    0.0000 C   0  0  0  0  0  0  0  0  0  0  0  0
    8.6113   -3.2257    0.0000 C   0  0  0  0  0  0  0  0  0  0  0  0
    0.0280   -3.1416    0.0000 C   0  0  0  0  0  0  0  0  0  0  0  0
    5.7502   -4.0392    0.0000 C   0  0  0  0  0  0  0  0  0  0  0  0
    1.4866   -0.6405    0.0000 C   0  0  0  0  0  0  0  0  0  0  0  0
    0.7573   -0.2244    0.0000 C   0  0  0  0  0  0  0  0  0  0  0  0
    0.0561   -0.6452    0.0000 C   0  0  0  0  0  0  0  0  0  0  0  0
    0.0561   -1.4586    0.0000 C   0  0  0  0  0  0  0  0  0  0  0  0
    0.7573   -1.8887    0.0000 C   0  0  0  0  0  0  0  0  0  0  0  0
    1.4866   -1.4773    0.0000 C   0  0  0  0  0  0  0  0  0  0  0  0
    2.9172   -1.4913    0.0000 C   0  0  0  0  0  0  0  0  0  0  0  0
    7.1340   -1.5568    0.0000 C   0  0  0  0  0  0  0  0  0  0  0  0
    2.1879   -1.9027    0.0000 C   0  0  0  0  0  0  0  0  0  0  0  0
    3.6184   -1.9214    0.0000 C   0  0  0  0  0  0  0  0  0  0  0  0
    3.6184   -2.7676    0.0000 C   0  0  0  0  0  0  0  0  0  0  0  0
    5.7502   -1.5287    0.0000 C   0  0  0  0  0  0  0  0  0  0  0  0
    5.0910   -1.9074    0.0000 C   0  0  0  0  0  0  0  0  0  0  0  0
    2.1879   -2.7535    0.0000 C   0  0  0  0  0  0  0  0  0  0  0  0
    6.3813   -2.8470    0.0000 C   0  0  0  0  0  0  0  0  0  0  0  0
    5.7923   -3.1836    0.0000 C   0  0  0  0  0  0  0  0  0  0  0  0
    7.9101   -2.8260    0.0000 C   0  0  0  0  0  0  0  0  0  0  0  0
    2.8891   -3.1650    0.0000 C   0  0  0  0  0  0  0  0  0  0  0  0
    4.3197   -3.1789    0.0000 C   0  0  0  0  0  0  0  0  0  0  0  0
    4.3197   -4.0298    0.0000 C   0  0  0  0  0  0  0  0  0  0  0  0
    3.6324   -4.4179    0.0000 C   0  0  0  0  0  0  0  0  0  0  0  0
    2.8821   -4.0322    0.0000 N   0  0  0  0  0  0  0  0  0  0  0  0
    6.4795   -1.9705    0.0000 N   0  0  0  0  0  0  0  0  0  0  0  0
    5.0419   -2.7979    0.0000 N   0  0  0  0  0  0  0  0  0  0  0  0
    5.0279   -4.4740    0.0000 O   0  0  0  0  0  0  0  0  0  0  0  0
    0.7504   -2.7559    0.0000 O   0  0  0  0  0  0  0  0  0  0  0  0
    7.9101   -1.9845    0.0000 O   0  0  0  0  0  0  0  0  0  0  0  0
  1 10  1  0  0  0  0
 10 11  1  0  0  0  0
 11 12  2  0  0  0  0
 12 13  1  0  0  0  0
 13 14  2  0  0  0  0
 10 15  2  0  0  0  0
 14 15  1  0  0  0  0
  2 16  1  0  0  0  0
  3 17  2  0  0  0  0
 15 18  1  0  0  0  0
 16 18  1  0  0  0  0
 16 19  2  0  0  0  0
 19 20  1  0  0  0  0
 21 22  1  0  0  0  0
 18 23  2  0  0  0  0
  4 23  1  0  0  0  0
 24 25  1  0  0  0  0
  5 26  1  0  0  0  0
  6 26  1  0  0  0  0
  7 26  1  0  0  0  0
 23 27  1  0  0  0  0
 20 27  2  0  0  0  0
 20 28  1  0  0  0  0
 28 29  2  0  0  0  0
 29 30  1  0  0  0  0
 27 31  1  0  0  0  0
 30 31  2  0  0  0  0
 17 32  1  0  0  0  0
 21 32  1  0  0  0  0
 24 32  1  0  0  0  0
 22 33  1  0  0  0  0
 25 33  1  0  0  0  0
 28 33  1  0  0  0  0
  9 34  1  0  0  0  0
 29 34  1  0  0  0  0
  8 35  1  0  0  0  0
 14 35  1  0  0  0  0
 17 36  1  0  0  0  0
 26 36  1  0  0  0  0
M  END
> <ID>
SCHEMBL21136787

> <InChIKey>
QRCXNLLXNXFAMN-UHFFFAOYSA-N

> <MW>
516.01

> <Series_Name>
Series_17

$$$$
SCHEMBL21136788
  Mrv1719007171904212D 0   0.00000     0.00000     0

 36 39  0  0  0  0              1 V2000 
    3.5761   -0.0559    0.0000 C   0  0  0  0  0  0  0  0  0  0  0  0
    4.4213   -0.4959    0.0000 Cl  0  0  0  0  0  0  0  0  0  0  0  0
    8.7168   -0.5518    0.0000 O   0  0  0  0  0  0  0  0  0  0  0  0
   10.1696   -1.3550    0.0000 C   0  0  0  0  0  0  0  0  0  0  0  0
    1.0058   -2.4306    0.0000 C   0  0  0  0  0  0  0  0  0  0  0  0
    2.4446   -3.0313    0.0000 C   0  0  0  0  0  0  0  0  0  0  0  0
    7.1942   -3.7298    0.0000 C   0  0  0  0  0  0  0  0  0  0  0  0
    2.8358   -0.4424    0.0000 C   0  0  0  0  0  0  0  0  0  0  0  0
    2.1373   -0.0419    0.0000 C   0  0  0  0  0  0  0  0  0  0  0  0
    1.4388   -0.3772    0.0000 C   0  0  0  0  0  0  0  0  0  0  0  0
    1.3550   -1.2339    0.0000 C   0  0  0  0  0  0  0  0  0  0  0  0
    2.8218   -1.2479    0.0000 C   0  0  0  0  0  0  0  0  0  0  0  0
    4.2886   -1.2759    0.0000 C   0  0  0  0  0  0  0  0  0  0  0  0
    8.7634   -1.3550    0.0000 C   0  0  0  0  0  0  0  0  0  0  0  0
    2.0675   -1.6437    0.0000 C   0  0  0  0  0  0  0  0  0  0  0  0
    3.5482   -1.6716    0.0000 C   0  0  0  0  0  0  0  0  0  0  0  0
    5.0150   -2.4772    0.0000 C   0  0  0  0  0  0  0  0  0  0  0  0
    5.0150   -1.6903    0.0000 C   0  0  0  0  0  0  0  0  0  0  0  0
    7.2081   -1.3271    0.0000 C   0  0  0  0  0  0  0  0  0  0  0  0
    6.5376   -1.6763    0.0000 C   0  0  0  0  0  0  0  0  0  0  0  0
    9.4432   -1.7461    0.0000 C   0  0  0  0  0  0  0  0  0  0  0  0
    3.5342   -2.4586    0.0000 C   0  0  0  0  0  0  0  0  0  0  0  0
    4.2606   -2.8870    0.0000 C   0  0  0  0  0  0  0  0  0  0  0  0
    7.9206   -2.5563    0.0000 C   0  0  0  0  0  0  0  0  0  0  0  0
    7.2221   -2.9196    0.0000 C   0  0  0  0  0  0  0  0  0  0  0  0
    5.7414   -2.9010    0.0000 C   0  0  0  0  0  0  0  0  0  0  0  0
    5.7274   -3.7065    0.0000 C   0  0  0  0  0  0  0  0  0  0  0  0
    5.0150   -4.0930    0.0000 C   0  0  0  0  0  0  0  0  0  0  0  0
    1.1175   -2.5005    0.0000 C   0  0  0  0  0  0  0  0  0  0  0  0
    0.6077   -3.2199    0.0000 O   0  0  0  0  0  0  0  0  0  0  0  0
    4.2536   -3.7158    0.0000 N   0  0  0  0  0  0  0  0  0  0  0  0
    0.4540   -1.7881    0.0000 N   0  0  0  0  0  0  0  0  0  0  0  0
    7.9555   -1.7461    0.0000 N   0  0  0  0  0  0  0  0  0  0  0  0
    1.8859   -2.4516    0.0000 N   0  0  0  0  0  0  0  0  0  0  0  0
    6.4748   -2.5354    0.0000 N   0  0  0  0  0  0  0  0  0  0  0  0
    6.4538   -4.1489    0.0000 O   0  0  0  0  0  0  0  0  0  0  0  0
  1  8  1  0  0  0  0
  8  9  1  0  0  0  0
  9 10  2  0  0  0  0
 10 11  1  0  0  0  0
  8 12  2  0  0  0  0
  2 13  1  0  0  0  0
  3 14  2  0  0  0  0
 11 15  2  0  0  0  0
 12 15  1  0  0  0  0
 12 16  1  0  0  0  0
 13 16  1  0  0  0  0
 17 18  1  0  0  0  0
 13 18  2  0  0  0  0
 19 20  1  0  0  0  0
  4 21  2  0  0  0  0
 14 21  1  0  0  0  0
 16 22  2  0  0  0  0
 22 23  1  0  0  0  0
 17 23  2  0  0  0  0
 24 25  1  0  0  0  0
 17 26  1  0  0  0  0
 26 27  2  0  0  0  0
 27 28  1  0  0  0  0
 29 30  2  0  0  0  0
 23 31  1  0  0  0  0
 28 31  2  0  0  0  0
  5 32  1  0  0  0  0
 11 32  1  0  0  0  0
 14 33  1  0  0  0  0
 19 33  1  0  0  0  0
 24 33  1  0  0  0  0
  6 34  1  0  0  0  0
 15 34  1  0  0  0  0
 29 34  1  0  0  0  0
 20 35  1  0  0  0  0
 25 35  1  0  0  0  0
 26 35  1  0  0  0  0
  7 36  1  0  0  0  0
 27 36  1  0  0  0  0
M  END
> <ID>
SCHEMBL21136788

> <InChIKey>
SAYLMKWMDSOGPI-UHFFFAOYSA-N

> <MW>
508.02

> <Series_Name>
Series_17

$$$$
SCHEMBL21136792
  Mrv1719007171904222D 0   0.00000     0.00000     0

 38 42  0  0  1  0              1 V2000 
    6.9676   -4.5574    0.0000 N   0  0  0  0  0  0  0  0  0  0  0  0
    7.3460   -5.2917    0.0000 C   0  0  0  0  0  0  0  0  0  0  0  0
    8.1690   -5.3980    0.0000 C   0  0  0  0  0  0  0  0  0  0  0  0
    8.4915   -6.1504    0.0000 N   0  0  0  0  0  0  0  0  0  0  0  0
    5.8213   -3.7048    0.0000 C   0  0  0  0  0  0  0  0  0  0  0  0
    6.1450   -4.4596    0.0000 C   0  0  0  0  0  0  0  0  0  0  0  0
    4.4854   -4.2792    0.0000 C   0  0  0  0  0  0  0  0  0  0  0  0
    4.9667   -3.6105    0.0000 C   0  0  0  0  0  0  0  0  0  0  0  0
    4.7928   -5.0422    0.0000 N   0  0  0  0  0  0  0  0  0  0  0  0
    3.6442   -4.1820    0.0000 C   0  0  0  0  0  0  0  0  0  0  0  0
    1.3852   -5.2362    0.0000 N   0  0  0  0  0  0  0  0  0  0  0  0
    2.1228   -4.8262    0.0000 C   0  0  0  0  0  0  0  0  0  0  0  0
    1.9678   -4.0117    0.0000 C   0  0  0  0  0  0  0  0  0  0  0  0
    1.1019   -3.9333    0.0000 C   0  0  0  0  0  0  0  0  0  0  0  0
    0.5125   -4.6821    0.0000 N   0  0  0  0  0  0  0  0  0  0  0  0
    2.6304   -1.9387    0.0000 C   0  0  0  0  0  0  0  0  0  0  0  0
    2.1300   -2.6026    0.0000 C   0  0  0  0  0  0  0  0  0  0  0  0
    2.4595   -3.3551    0.0000 C   0  0  0  0  0  0  0  0  0  0  0  0
    3.3083   -3.4366    0.0000 C   0  0  0  0  0  0  0  0  0  0  0  0
    3.2788   -2.0398    0.0000 Cl  0  0  0  0  0  0  0  0  0  0  0  0
    3.8020   -2.7809    0.0000 C   0  0  0  0  0  0  0  0  0  0  0  0
    4.6282   -2.8716    0.0000 C   0  0  0  0  0  0  0  0  0  0  0  0
    6.2889   -3.0614    0.0000 N   0  0  0  0  0  0  0  0  0  0  0  0
    5.6597   -5.1220    0.0000 C   0  0  0  0  0  0  0  0  0  0  0  0
    1.2911   -2.5158    0.0000 C   0  0  0  0  0  0  0  0  0  0  0  0
    0.7964   -3.1745    0.0000 C   0  0  0  0  0  0  0  0  0  0  0  0
    7.2863   -1.7316    0.0000 N   0  0  0  0  0  0  0  0  0  0  0  0
    7.6438   -2.4771    0.0000 C   0  0  0  0  0  0  0  0  0  0  0  0
    7.1445   -3.1270    0.0000 C   0  0  2  0  0  0  0  0  0  0  0  0
    5.9751   -2.2936    0.0000 C   0  0  0  0  0  0  0  0  0  0  0  0
    6.4624   -1.6473    0.0000 C   0  0  0  0  0  0  0  0  0  0  0  0
    7.4387   -0.3186    0.0000 O   0  0  0  0  0  0  0  0  0  0  0  0
    7.7402   -1.1401    0.0000 C   0  0  0  0  0  0  0  0  0  0  0  0
    8.6496   -1.1423    0.0000 C   0  0  0  0  0  0  0  0  0  0  0  0
    9.1401   -0.4986    0.0000 C   0  0  0  0  0  0  0  0  0  0  0  0
    8.0201   -6.7876    0.0000 C   0  0  0  0  0  0  0  0  0  0  0  0
    9.3584   -6.2370    0.0000 C   0  0  0  0  0  0  0  0  0  0  0  0
    7.4883   -3.8911    0.0000 C   0  0  0  0  0  0  0  0  0  0  0  0
  1  2  1  0  0  0  0
  2  3  1  0  0  0  0
  4  3  1  0  0  0  0
  4 36  1  0  0  0  0
  4 37  1  0  0  0  0
  5  6  2  0  0  0  0
  6  1  1  0  0  0  0
  7  8  2  0  0  0  0
  7  9  1  0  0  0  0
  8  5  1  0  0  0  0
  9 24  2  0  0  0  0
 10  7  1  0  0  0  0
 11 12  2  0  0  0  0
 13 12  1  0  0  0  0
 14 13  2  0  0  0  0
 14 26  1  0  0  0  0
 15 14  1  0  0  0  0
 16 17  1  0  0  0  0
 17 18  2  0  0  0  0
 18 19  1  0  0  0  0
 18 13  1  0  0  0  0
 19 10  2  0  0  0  0
 20 21  1  0  0  0  0
 21 22  2  0  0  0  0
 21 19  1  0  0  0  0
 22  8  1  0  0  0  0
 23  5  1  0  0  0  0
 24  6  1  0  0  0  0
 25 17  1  0  0  0  0
 26 25  2  0  0  0  0
 27 28  1  0  0  0  0
 27 31  1  0  0  0  0
 29 28  1  0  0  0  0
 29 38  1  0  0  0  0
 29 23  1  6  0  0  0
 30 31  1  0  0  0  0
 30 23  1  0  0  0  0
 32 33  2  0  0  0  0
 33 34  1  0  0  0  0
 33 27  1  0  0  0  0
 34 35  2  0  0  0  0
 38  1  1  0  0  0  0
M  END
> <ID>
SCHEMBL21136792

> <InChIKey>
MVQUSGPZUCBQIL-IBGZPJMESA-N

> <MW>
532.09

> <Series_Name>
Series_17

$$$$
SCHEMBL21136799
  Mrv1719007171904232D 0   0.00000     0.00000     0

 43 49  0  0  1  0              1 V2000 
    7.5898   -3.3054    0.0000 C   0  0  0  0  0  0  0  0  0  0  0  0
    7.7822   -4.1208    0.0000 C   0  0  0  0  0  0  0  0  0  0  0  0
    6.7994   -3.0690    0.0000 C   0  0  0  0  0  0  0  0  0  0  0  0
    6.2131   -3.6083    0.0000 C   0  0  0  0  0  0  0  0  0  0  0  0
    6.3626   -4.4345    0.0000 N   0  0  0  0  0  0  0  0  0  0  0  0
    5.4169   -3.3805    0.0000 C   0  0  0  0  0  0  0  0  0  0  0  0
    4.8064   -3.9388    0.0000 F   0  0  0  0  0  0  0  0  0  0  0  0
    4.4419   -2.3149    0.0000 C   0  0  0  0  0  0  0  0  0  0  0  0
    3.8499   -2.8714    0.0000 C   0  0  0  0  0  0  0  0  0  0  0  0
    3.8286   -3.7046    0.0000 N   0  0  0  0  0  0  0  0  0  0  0  0
    3.0634   -2.6369    0.0000 C   0  0  0  0  0  0  0  0  0  0  0  0
    2.5478   -3.3053    0.0000 N   0  0  0  0  0  0  0  0  0  0  0  0
    2.8922   -1.8218    0.0000 C   0  0  0  0  0  0  0  0  0  0  0  0
    3.4851   -1.2731    0.0000 C   0  0  0  0  0  0  0  0  0  0  0  0
    4.2754   -1.5035    0.0000 C   0  0  0  0  0  0  0  0  0  0  0  0
    4.8737   -0.9543    0.0000 C   0  0  0  0  0  0  0  0  0  0  0  0
    5.2426   -2.5613    0.0000 C   0  0  0  0  0  0  0  0  0  0  0  0
    5.8378   -2.0049    0.0000 C   0  0  0  0  0  0  0  0  0  0  0  0
    5.4909   -1.2050    0.0000 Cl  0  0  0  0  0  0  0  0  0  0  0  0
    6.6352   -2.2569    0.0000 C   0  0  0  0  0  0  0  0  0  0  0  0
    8.1804   -2.7543    0.0000 N   0  0  0  0  0  0  0  0  0  0  0  0
    8.5523   -4.3656    0.0000 O   0  0  0  0  0  0  0  0  0  0  0  0
    7.1557   -4.6661    0.0000 C   0  0  0  0  0  0  0  0  0  0  0  0
    3.0741   -3.9591    0.0000 C   0  0  0  0  0  0  0  0  0  0  0  0
    0.1171   -3.1963    0.0000 C   0  0  0  0  0  0  0  0  0  0  0  0
    0.5497   -2.5039    0.0000 C   0  0  0  0  0  0  0  0  0  0  0  0
    1.3706   -2.5443    0.0000 C   0  0  0  0  0  0  0  0  0  0  0  0
    1.7412   -3.2411    0.0000 C   0  0  0  0  0  0  0  0  0  0  0  0
    1.2946   -3.9663    0.0000 O   0  0  0  0  0  0  0  0  0  0  0  0
    0.4947   -3.9230    0.0000 C   0  0  0  0  0  0  0  0  0  0  0  0
    9.0039   -2.9763    0.0000 C   0  0  2  0  0  0  0  0  0  0  0  0
    9.4062   -1.6389    0.0000 N   0  0  0  0  0  0  0  0  0  0  0  0
    9.5955   -2.4481    0.0000 C   0  0  0  0  0  0  0  0  0  0  0  0
   10.3977   -2.6812    0.0000 C   0  0  0  0  0  0  0  0  0  0  0  0
   11.0030   -2.1157    0.0000 C   0  0  0  0  0  0  0  0  0  0  0  0
   10.7971   -1.3221    0.0000 O   0  0  0  0  0  0  0  0  0  0  0  0
   11.6247   -1.5568    0.0000 C   0  0  0  0  0  0  0  0  0  0  0  0
   11.7525   -2.3689    0.0000 C   0  0  0  0  0  0  0  0  0  0  0  0
    8.0300   -1.9380    0.0000 C   0  0  0  0  0  0  0  0  0  0  0  0
    8.6285   -1.3987    0.0000 C   0  0  0  0  0  0  0  0  0  0  0  0
   10.0523   -1.0835    0.0000 C   0  0  0  0  0  0  0  0  0  0  0  0
    9.8331   -0.2617    0.0000 O   0  0  0  0  0  0  0  0  0  0  0  0
    9.1735   -3.8000    0.0000 C   0  0  0  0  0  0  0  0  0  0  0  0
  1  2  2  0  0  0  0
  2 22  1  0  0  0  0
  3  1  1  0  0  0  0
  3  4  1  0  0  0  0
  4  5  1  0  0  0  0
  5 23  2  0  0  0  0
  6  4  2  0  0  0  0
  6 17  1  0  0  0  0
  7  6  1  0  0  0  0
  8  9  1  0  0  0  0
  8 17  1  0  0  0  0
 10  9  1  0  0  0  0
 11  9  2  0  0  0  0
 11 13  1  0  0  0  0
 12 11  1  0  0  0  0
 12 24  1  0  0  0  0
 13 14  2  0  0  0  0
 14 15  1  0  0  0  0
 15  8  2  0  0  0  0
 16 15  1  0  0  0  0
 17 18  2  0  0  0  0
 18 19  1  0  0  0  0
 18 20  1  0  0  0  0
 20  3  2  0  0  0  0
 21  1  1  0  0  0  0
 21 39  1  0  0  0  0
 23  2  1  0  0  0  0
 24 10  2  0  0  0  0
 25 26  1  0  0  0  0
 25 30  1  0  0  0  0
 26 27  1  0  0  0  0
 28 12  1  0  0  0  0
 28 29  1  0  0  0  0
 28 27  1  0  0  0  0
 30 29  1  0  0  0  0
 31 21  1  6  0  0  0
 31 43  1  0  0  0  0
 32 33  1  0  0  0  0
 31 33  1  0  0  0  0
 34 35  1  0  0  0  0
 35 36  1  0  0  0  0
 35 37  1  0  0  0  0
 36 41  1  0  0  0  0
 38 35  1  0  0  0  0
 39 40  1  0  0  0  0
 40 32  1  0  0  0  0
 41 42  1  0  0  0  0
 41 32  1  0  0  0  0
 43 22  1  0  0  0  0
M  END
> <ID>
SCHEMBL21136799

> <InChIKey>
IFJXWKBGEUHFBN-YWHRDJGASA-N

> <MW>
610.13

> <Series_Name>
Series_17

$$$$
SCHEMBL21136803
  Mrv1719007171904232D 0   0.00000     0.00000     0

 35 42  0  0  1  0              1 V2000 
    0.1353   -3.2635    0.0000 C   0  0  0  0  0  0  0  0  0  0  0  0
    0.7367   -2.6653    0.0000 C   0  0  0  0  0  0  0  0  0  0  0  0
    1.4134   -2.9923    0.0000 N   0  0  0  0  0  0  0  0  0  0  0  0
    0.5597   -4.0093    0.0000 C   0  0  0  0  0  0  0  0  0  0  0  0
    1.3586   -3.8073    0.0000 C   0  0  0  0  0  0  0  0  0  0  0  0
    4.1814   -3.1115    0.0000 C   0  0  0  0  0  0  0  0  0  0  0  0
    3.5492   -2.5732    0.0000 C   0  0  1  0  0  0  0  0  0  0  0  0
    2.8033   -2.9605    0.0000 C   0  0  0  0  0  0  0  0  0  0  0  0
    2.7863   -1.3477    0.0000 C   0  0  0  0  0  0  0  0  0  0  0  0
    3.5559   -1.7315    0.0000 C   0  0  0  0  0  0  0  0  0  0  0  0
    4.1851   -1.2259    0.0000 C   0  0  0  0  0  0  0  0  0  0  0  0
    4.9924   -1.3895    0.0000 C   0  0  0  0  0  0  0  0  0  0  0  0
    5.4342   -0.7258    0.0000 C   0  0  0  0  0  0  0  0  0  0  0  0
    6.2096   -0.7844    0.0000 C   0  0  0  0  0  0  0  0  0  0  0  0
    6.6018   -1.5001    0.0000 C   0  0  0  0  0  0  0  0  0  0  0  0
    7.1877   -0.8797    0.0000 C   0  0  0  0  0  0  0  0  0  0  0  0
    7.3852   -1.7589    0.0000 C   0  0  1  0  0  0  0  0  0  0  0  0
    8.1467   -1.2993    0.0000 C   0  0  0  0  0  0  0  0  0  0  0  0
    8.0798   -0.5088    0.0000 C   0  0  0  0  0  0  0  0  0  0  0  0
    8.7203   -0.1316    0.0000 C   0  0  0  0  0  0  0  0  0  0  0  0
    9.4962   -0.5028    0.0000 C   0  0  0  0  0  0  0  0  0  0  0  0
   10.2064   -0.1259    0.0000 C   0  0  0  0  0  0  0  0  0  0  0  0
   10.8616   -0.4958    0.0000 C   0  0  0  0  0  0  0  0  0  0  0  0
   10.8566   -1.3533    0.0000 N   0  0  0  0  0  0  0  0  0  0  0  0
    9.4957   -1.3492    0.0000 C   0  0  0  0  0  0  0  0  0  0  0  0
   10.2091   -1.7465    0.0000 C   0  0  0  0  0  0  0  0  0  0  0  0
    8.7485   -1.7573    0.0000 C   0  0  0  0  0  0  0  0  0  0  0  0
    4.9316   -2.9274    0.0000 C   0  0  0  0  0  0  0  0  0  0  0  0
    5.3144   -2.1614    0.0000 C   0  0  2  0  0  0  0  0  0  0  0  0
    2.1371   -1.7417    0.0000 C   0  0  0  0  0  0  0  0  0  0  0  0
    2.1323   -2.5633    0.0000 C   0  0  0  0  0  0  0  0  0  0  0  0
    7.3670   -2.5900    0.0000 C   0  0  0  0  0  0  0  0  0  0  0  0
    6.1430   -2.2160    0.0000 C   0  0  2  0  0  0  0  0  0  0  0  0
    6.5754   -2.8476    0.0000 C   0  0  0  0  0  0  0  0  0  0  0  0
    4.2855   -2.1202    0.0000 O   0  0  0  0  0  0  0  0  0  0  0  0
  1  2  1  0  0  0  0
  2  3  1  0  0  0  0
  3  5  1  0  0  0  0
  4  5  1  0  0  0  0
  4  1  1  0  0  0  0
  6 28  1  0  0  0  0
  7  6  1  0  0  0  0
  7  8  1  0  0  0  0
  7 10  1  0  0  0  0
  7 35  1  6  0  0  0
  9 10  1  0  0  0  0
  9 30  1  0  0  0  0
 10 11  2  0  0  0  0
 11 12  1  0  0  0  0
 12 13  2  0  0  0  0
 13 14  1  0  0  0  0
 14 15  1  0  0  0  0
 17 15  1  0  0  0  0
 16 15  1  0  0  0  0
 17 18  1  1  0  0  0
 18 19  1  0  0  0  0
 18 27  2  0  0  0  0
 19 20  2  0  0  0  0
 20 21  1  0  0  0  0
 21 22  1  0  0  0  0
 22 23  2  0  0  0  0
 24 23  1  0  0  0  0
 25 21  2  0  0  0  0
 25 26  1  0  0  0  0
 26 24  2  0  0  0  0
 27 25  1  0  0  0  0
 29 28  1  0  0  0  0
 29 12  1  0  0  0  0
 29 35  1  6  0  0  0
 30 31  1  0  0  0  0
 31  8  1  0  0  0  0
 31  3  1  0  0  0  0
 17 32  1  0  0  0  0
 33 34  1  1  0  0  0
 33 15  1  0  0  0  0
 33 29  1  0  0  0  0
 34 32  1  0  0  0  0
M  END
> <ID>
SCHEMBL21136803

> <InChIKey>
PYJBCABLDWIDPE-FLNOTNEWSA-N

> <MW>
466.669

> <Series_Name>
Series_16

$$$$
SCHEMBL21136806
  Mrv1719007171904232D 0   0.00000     0.00000     0

 34 38  0  0  1  0              1 V2000 
    5.1043   -4.4089    0.0000 N   0  0  0  0  0  0  0  0  0  0  0  0
    5.1241   -5.2503    0.0000 C   0  0  0  0  0  0  0  0  0  0  0  0
    3.6914   -4.4022    0.0000 C   0  0  0  0  0  0  0  0  0  0  0  0
    4.4133   -3.9823    0.0000 C   0  0  0  0  0  0  0  0  0  0  0  0
    3.6871   -2.7369    0.0000 C   0  0  0  0  0  0  0  0  0  0  0  0
    4.4145   -3.1505    0.0000 C   0  0  0  0  0  0  0  0  0  0  0  0
    2.9485   -3.9777    0.0000 N   0  0  0  0  0  0  0  0  0  0  0  0
    2.9770   -3.1453    0.0000 C   0  0  0  0  0  0  0  0  0  0  0  0
    2.2592   -2.7344    0.0000 C   0  0  0  0  0  0  0  0  0  0  0  0
    1.7420   -2.9963    0.0000 C   0  0  0  0  0  0  0  0  0  0  0  0
    2.2589   -1.9109    0.0000 C   0  0  0  0  0  0  0  0  0  0  0  0
    1.5275   -1.5080    0.0000 C   0  0  0  0  0  0  0  0  0  0  0  0
    0.8118   -1.9085    0.0000 C   0  0  0  0  0  0  0  0  0  0  0  0
    0.7928   -2.7538    0.0000 O   0  0  0  0  0  0  0  0  0  0  0  0
    0.1007   -1.5114    0.0000 C   0  0  0  0  0  0  0  0  0  0  0  0
    0.1087   -0.6675    0.0000 C   0  0  0  0  0  0  0  0  0  0  0  0
    1.5346   -0.6703    0.0000 C   0  0  0  0  0  0  0  0  0  0  0  0
    2.2392   -0.2643    0.0000 F   0  0  0  0  0  0  0  0  0  0  0  0
    2.9780   -1.4959    0.0000 C   0  0  0  0  0  0  0  0  0  0  0  0
    3.0972   -0.6745    0.0000 Cl  0  0  0  0  0  0  0  0  0  0  0  0
    3.6958   -1.9100    0.0000 C   0  0  0  0  0  0  0  0  0  0  0  0
    5.1043   -2.7399    0.0000 N   0  0  0  0  0  0  0  0  0  0  0  0
    0.8104   -0.2752    0.0000 C   0  0  0  0  0  0  0  0  0  0  0  0
    5.8242   -3.9948    0.0000 C   0  0  0  0  0  0  0  0  0  0  0  0
    6.5368   -4.4089    0.0000 O   0  0  0  0  0  0  0  0  0  0  0  0
    1.3629   -2.7538    0.0000 C   0  0  0  0  0  0  0  0  0  0  0  0
    1.3710   -2.5800    0.0000 C   0  0  0  0  0  0  0  0  0  0  0  0
    1.4356   -2.9951    0.0000 C   0  0  0  0  0  0  0  0  0  0  0  0
    1.4384   -3.3588    0.0000 C   0  0  0  0  0  0  0  0  0  0  0  0
    5.8355   -3.1466    0.0000 C   0  0  1  0  0  0  0  0  0  0  0  0
    6.7454   -1.9193    0.0000 N   0  0  0  0  0  0  0  0  0  0  0  0
    6.5529   -2.7405    0.0000 C   0  0  0  0  0  0  0  0  0  0  0  0
    5.8346   -1.5090    0.0000 C   0  0  0  0  0  0  0  0  0  0  0  0
    5.1339   -1.9156    0.0000 C   0  0  0  0  0  0  0  0  0  0  0  0
  1  2  1  0  0  0  0
  1  4  1  0  0  0  0
  1 24  1  0  0  0  0
  3  4  1  0  0  0  0
  4  6  2  0  0  0  0
  5  6  1  0  0  0  0
  5 21  1  0  0  0  0
  6 22  1  0  0  0  0
  7  8  1  0  0  0  0
  7  3  2  0  0  0  0
  8  5  2  0  0  0  0
  9  8  1  0  0  0  0
 10  9  1  0  0  0  0
 11 12  1  0  0  0  0
 11  9  2  0  0  0  0
 12 17  2  0  0  0  0
 13 14  1  0  0  0  0
 13 12  1  0  0  0  0
 15 13  2  0  0  0  0
 15 16  1  0  0  0  0
 16 23  2  0  0  0  0
 17 18  1  0  0  0  0
 19 11  1  0  0  0  0
 19 21  2  0  0  0  0
 20 19  1  0  0  0  0
 23 17  1  0  0  0  0
 24 25  2  0  0  0  0
 26 14  1  0  0  0  0
 27 28  1  0  0  0  0
 28 10  2  0  0  0  0
 28 29  1  0  0  0  0
 30 22  1  6  0  0  0
 30 24  1  0  0  0  0
 30 32  1  0  0  0  0
 31 32  1  0  0  0  0
 33 31  1  0  0  0  0
 33 34  1  0  0  0  0
 34 22  1  0  0  0  0
M  END
> <ID>
SCHEMBL21136806

> <InChIKey>
GTZNYNKULCNURS-HXUWFJFHSA-N

> <MW>
480.97

> <Series_Name>
Series_17

$$$$
SCHEMBL21136812
  Mrv1719007171904242D 0   0.00000     0.00000     0

 33 36  0  0  0  0              1 V2000 
    2.2852   -0.2461    0.0000 O   0  0  0  0  0  0  0  0  0  0  0  0
    5.7657   -0.8860    0.0000 C   0  0  0  0  0  0  0  0  0  0  0  0
    3.0024   -0.8297    0.0000 Cl  0  0  0  0  0  0  0  0  0  0  0  0
    7.1931   -0.8297    0.0000 O   0  0  0  0  0  0  0  0  0  0  0  0
    8.6205   -1.6313    0.0000 C   0  0  0  0  0  0  0  0  0  0  0  0
    0.7594   -2.8548    0.0000 F   0  0  0  0  0  0  0  0  0  0  0  0
    1.4626   -3.2345    0.0000 C   0  0  0  0  0  0  0  0  0  0  0  0
    5.7517   -4.0641    0.0000 C   0  0  0  0  0  0  0  0  0  0  0  0
    1.4626   -0.7969    0.0000 C   0  0  0  0  0  0  0  0  0  0  0  0
    0.7312   -0.3938    0.0000 C   0  0  0  0  0  0  0  0  0  0  0  0
    0.0281   -0.8016    0.0000 C   0  0  0  0  0  0  0  0  0  0  0  0
    0.0281   -1.5891    0.0000 C   0  0  0  0  0  0  0  0  0  0  0  0
    0.7453   -2.0204    0.0000 C   0  0  0  0  0  0  0  0  0  0  0  0
    1.4626   -1.6078    0.0000 C   0  0  0  0  0  0  0  0  0  0  0  0
    5.7564   -1.6078    0.0000 C   0  0  0  0  0  0  0  0  0  0  0  0
    2.8969   -1.6078    0.0000 C   0  0  0  0  0  0  0  0  0  0  0  0
    7.1252   -1.6454    0.0000 C   0  0  0  0  0  0  0  0  0  0  0  0
    2.1797   -2.0204    0.0000 C   0  0  0  0  0  0  0  0  0  0  0  0
    3.6142   -2.0251    0.0000 C   0  0  0  0  0  0  0  0  0  0  0  0
    3.6142   -2.8313    0.0000 C   0  0  0  0  0  0  0  0  0  0  0  0
    5.0626   -2.0110    0.0000 C   0  0  0  0  0  0  0  0  0  0  0  0
    7.9314   -2.0251    0.0000 C   0  0  0  0  0  0  0  0  0  0  0  0
    2.1797   -2.8313    0.0000 C   0  0  0  0  0  0  0  0  0  0  0  0
    6.4689   -2.8407    0.0000 C   0  0  0  0  0  0  0  0  0  0  0  0
    5.8220   -3.2204    0.0000 C   0  0  0  0  0  0  0  0  0  0  0  0
    2.8969   -3.2438    0.0000 C   0  0  0  0  0  0  0  0  0  0  0  0
    4.3313   -3.2438    0.0000 C   0  0  0  0  0  0  0  0  0  0  0  0
    4.3313   -4.0688    0.0000 C   0  0  0  0  0  0  0  0  0  0  0  0
    3.6282   -4.4579    0.0000 C   0  0  0  0  0  0  0  0  0  0  0  0
    2.8899   -4.0782    0.0000 N   0  0  0  0  0  0  0  0  0  0  0  0
    5.0415   -2.8688    0.0000 N   0  0  0  0  0  0  0  0  0  0  0  0
    6.4689   -2.0532    0.0000 N   0  0  0  0  0  0  0  0  0  0  0  0
    5.0415   -4.4931    0.0000 O   0  0  0  0  0  0  0  0  0  0  0  0
  1  9  1  0  0  0  0
  9 10  1  0  0  0  0
 10 11  2  0  0  0  0
 11 12  1  0  0  0  0
 12 13  2  0  0  0  0
  6 13  1  0  0  0  0
  9 14  2  0  0  0  0
 13 14  1  0  0  0  0
  2 15  1  0  0  0  0
  3 16  1  0  0  0  0
  4 17  2  0  0  0  0
 14 18  1  0  0  0  0
 16 18  1  0  0  0  0
 16 19  2  0  0  0  0
 19 20  1  0  0  0  0
 15 21  1  0  0  0  0
  5 22  2  0  0  0  0
 17 22  1  0  0  0  0
 18 23  2  0  0  0  0
  7 23  1  0  0  0  0
 24 25  1  0  0  0  0
 23 26  1  0  0  0  0
 20 26  2  0  0  0  0
 20 27  1  0  0  0  0
 27 28  2  0  0  0  0
 28 29  1  0  0  0  0
 26 30  1  0  0  0  0
 29 30  2  0  0  0  0
 21 31  1  0  0  0  0
 25 31  1  0  0  0  0
 27 31  1  0  0  0  0
 15 32  1  0  0  0  0
 17 32  1  0  0  0  0
 24 32  1  0  0  0  0
  8 33  1  0  0  0  0
 28 33  1  0  0  0  0
M  END
> <ID>
SCHEMBL21136812

> <InChIKey>
KIDVIRHVPHAWQF-UHFFFAOYSA-N

> <MW>
469.94

> <Series_Name>
Series_17

$$$$
SCHEMBL21136814
  Mrv1719007171904252D 0   0.00000     0.00000     0

 29 32  0  0  0  0              1 V2000 
    2.9298   -0.2349    0.0000 F   0  0  0  0  0  0  0  0  0  0  0  0
    3.7452   -0.6496    0.0000 Cl  0  0  0  0  0  0  0  0  0  0  0  0
    0.4767   -3.0404    0.0000 O   0  0  0  0  0  0  0  0  0  0  0  0
    2.1836   -3.0542    0.0000 F   0  0  0  0  0  0  0  0  0  0  0  0
    5.7767   -5.0580    0.0000 C   0  0  0  0  0  0  0  0  0  0  0  0
    2.1836   -0.6173    0.0000 C   0  0  0  0  0  0  0  0  0  0  0  0
    1.4511   -0.2073    0.0000 C   0  0  0  0  0  0  0  0  0  0  0  0
    0.7325   -0.6220    0.0000 C   0  0  0  0  0  0  0  0  0  0  0  0
    0.7325   -1.3958    0.0000 C   0  0  0  0  0  0  0  0  0  0  0  0
    1.4511   -1.8196    0.0000 C   0  0  0  0  0  0  0  0  0  0  0  0
    2.1836   -1.4142    0.0000 C   0  0  0  0  0  0  0  0  0  0  0  0
    3.6346   -1.4280    0.0000 C   0  0  0  0  0  0  0  0  0  0  0  0
    2.9021   -1.8335    0.0000 C   0  0  0  0  0  0  0  0  0  0  0  0
    4.3533   -1.8381    0.0000 C   0  0  0  0  0  0  0  0  0  0  0  0
    4.3395   -2.6442    0.0000 C   0  0  0  0  0  0  0  0  0  0  0  0
    6.5091   -1.4511    0.0000 C   0  0  0  0  0  0  0  0  0  0  0  0
    5.8320   -1.8243    0.0000 C   0  0  0  0  0  0  0  0  0  0  0  0
    1.4511   -2.6119    0.0000 C   0  0  0  0  0  0  0  0  0  0  0  0
    2.9021   -2.6304    0.0000 C   0  0  0  0  0  0  0  0  0  0  0  0
    7.1448   -2.7225    0.0000 C   0  0  0  0  0  0  0  0  0  0  0  0
    6.5368   -3.0542    0.0000 C   0  0  0  0  0  0  0  0  0  0  0  0
    3.6208   -3.0358    0.0000 C   0  0  0  0  0  0  0  0  0  0  0  0
    5.0580   -3.0496    0.0000 C   0  0  0  0  0  0  0  0  0  0  0  0
    5.0580   -3.8603    0.0000 C   0  0  0  0  0  0  0  0  0  0  0  0
    4.3671   -4.2428    0.0000 C   0  0  0  0  0  0  0  0  0  0  0  0
    3.6070   -3.8695    0.0000 N   0  0  0  0  0  0  0  0  0  0  0  0
    7.4973   -1.8796    0.0000 N   0  0  0  0  0  0  0  0  0  0  0  0
    5.7905   -2.6741    0.0000 N   0  0  0  0  0  0  0  0  0  0  0  0
    6.1705   -4.0561    0.0000 N   0  0  0  0  0  0  0  0  0  0  0  0
  1  6  1  0  0  0  0
  6  7  2  0  0  0  0
  7  8  1  0  0  0  0
  8  9  2  0  0  0  0
  9 10  1  0  0  0  0
  6 11  1  0  0  0  0
 10 11  2  0  0  0  0
  2 12  1  0  0  0  0
 11 13  1  0  0  0  0
 12 13  1  0  0  0  0
 12 14  2  0  0  0  0
 14 15  1  0  0  0  0
 16 17  1  0  0  0  0
 10 18  1  0  0  0  0
  3 18  1  0  0  0  0
 13 19  2  0  0  0  0
  4 19  1  0  0  0  0
 20 21  1  0  0  0  0
 19 22  1  0  0  0  0
 15 22  2  0  0  0  0
 15 23  1  0  0  0  0
 23 24  2  0  0  0  0
 24 25  1  0  0  0  0
 22 26  1  0  0  0  0
 25 26  2  0  0  0  0
 16 27  1  0  0  0  0
 20 27  1  0  0  0  0
 17 28  1  0  0  0  0
 21 28  1  0  0  0  0
 23 28  1  0  0  0  0
  5 29  1  0  0  0  0
 24 29  1  0  0  0  0
M  END
> <ID>
SCHEMBL21136814

> <InChIKey>
XSTPJJDZXQSWQO-UHFFFAOYSA-N

> <MW>
418.87

> <Series_Name>
Series_17

$$$$
SCHEMBL21136817
  Mrv1719007171904262D 0   0.00000     0.00000     0

 33 40  0  0  1  0              1 V2000 
    0.1418   -3.1109    0.0000 C   0  0  0  0  0  0  0  0  0  0  0  0
    0.8831   -3.1032    0.0000 N   0  0  0  0  0  0  0  0  0  0  0  0
    0.5093   -3.8502    0.0000 C   0  0  0  0  0  0  0  0  0  0  0  0
    2.2751   -3.0862    0.0000 C   0  0  0  0  0  0  0  0  0  0  0  0
    1.5994   -2.6565    0.0000 C   0  0  0  0  0  0  0  0  0  0  0  0
    1.6122   -1.8092    0.0000 C   0  0  0  0  0  0  0  0  0  0  0  0
    2.9676   -1.7979    0.0000 C   0  0  0  0  0  0  0  0  0  0  0  0
    3.5845   -1.2702    0.0000 C   0  0  0  0  0  0  0  0  0  0  0  0
    4.4008   -1.4520    0.0000 C   0  0  0  0  0  0  0  0  0  0  0  0
    6.0110   -1.5615    0.0000 C   0  0  0  0  0  0  0  0  0  0  0  0
    6.5743   -0.8892    0.0000 C   0  0  0  0  0  0  0  0  0  0  0  0
    6.7249   -1.8286    0.0000 C   0  0  1  0  0  0  0  0  0  0  0  0
    7.4306   -0.5303    0.0000 C   0  0  0  0  0  0  0  0  0  0  0  0
    8.1126   -0.1077    0.0000 C   0  0  0  0  0  0  0  0  0  0  0  0
    8.8092   -0.5179    0.0000 C   0  0  0  0  0  0  0  0  0  0  0  0
    9.5136   -0.1042    0.0000 C   0  0  0  0  0  0  0  0  0  0  0  0
   10.1680   -1.3983    0.0000 N   0  0  0  0  0  0  0  0  0  0  0  0
   10.1851   -0.5182    0.0000 C   0  0  0  0  0  0  0  0  0  0  0  0
    8.7990   -1.3980    0.0000 C   0  0  0  0  0  0  0  0  0  0  0  0
    9.5075   -1.8207    0.0000 C   0  0  0  0  0  0  0  0  0  0  0  0
    7.4258   -1.3873    0.0000 C   0  0  0  0  0  0  0  0  0  0  0  0
    6.7236   -2.6769    0.0000 C   0  0  0  0  0  0  0  0  0  0  0  0
    5.9874   -2.9846    0.0000 C   0  0  0  0  0  0  0  0  0  0  0  0
    2.9644   -2.6588    0.0000 C   0  0  1  0  0  0  0  0  0  0  0  0
    3.6089   -3.2154    0.0000 C   0  0  0  0  0  0  0  0  0  0  0  0
    4.3752   -3.0127    0.0000 C   0  0  0  0  0  0  0  0  0  0  0  0
    2.2665   -1.3737    0.0000 C   0  0  0  0  0  0  0  0  0  0  0  0
    5.5480   -2.2931    0.0000 C   0  0  1  0  0  0  0  0  0  0  0  0
    5.6427   -0.8077    0.0000 C   0  0  0  0  0  0  0  0  0  0  0  0
    4.8250   -0.7425    0.0000 C   0  0  0  0  0  0  0  0  0  0  0  0
    4.7123   -2.2349    0.0000 C   0  0  2  0  0  0  0  0  0  0  0  0
    8.1014   -1.8141    0.0000 C   0  0  0  0  0  0  0  0  0  0  0  0
    3.7409   -2.1833    0.0000 O   0  0  0  0  0  0  0  0  0  0  0  0
  1  2  1  0  0  0  0
  1  3  1  0  0  0  0
  2  5  1  0  0  0  0
  3  2  1  0  0  0  0
  4  5  1  0  0  0  0
 24  4  1  0  0  0  0
  5  6  1  0  0  0  0
  7  8  2  0  0  0  0
  8  9  1  0  0  0  0
  9 30  2  0  0  0  0
 10 11  1  0  0  0  0
 10 29  1  0  0  0  0
 12 10  1  0  0  0  0
 12 21  1  1  0  0  0
 13 14  2  0  0  0  0
 13 21  1  0  0  0  0
 15 16  1  0  0  0  0
 15 14  1  0  0  0  0
 16 18  2  0  0  0  0
 17 18  1  0  0  0  0
 19 20  1  0  0  0  0
 19 32  1  0  0  0  0
 19 15  2  0  0  0  0
 20 17  2  0  0  0  0
 21 32  2  0  0  0  0
 22 23  1  0  0  0  0
 12 22  1  0  0  0  0
 24  7  1  0  0  0  0
 24 25  1  0  0  0  0
 24 33  1  6  0  0  0
 26 25  1  0  0  0  0
 27  7  1  0  0  0  0
 27  6  1  0  0  0  0
 28 23  1  1  0  0  0
 28 10  1  0  0  0  0
 28 31  1  0  0  0  0
 30 29  1  0  0  0  0
 31  9  1  0  0  0  0
 31 33  1  6  0  0  0
 31 26  1  0  0  0  0
M  END
> <ID>
SCHEMBL21136817

> <InChIKey>
PDDXOYMKGXUQCU-XUJDNYPASA-N

> <MW>
438.615

> <Series_Name>
Series_16

$$$$
SCHEMBL21136819
  Mrv1719007171904262D 0   0.00000     0.00000     0

 28 31  0  0  0  0              1 V2000 
    2.1966   -0.2433    0.0000 F   0  0  0  0  0  0  0  0  0  0  0  0
    3.0238   -0.6534    0.0000 Cl  0  0  0  0  0  0  0  0  0  0  0  0
    4.3654   -1.4667    0.0000 F   0  0  0  0  0  0  0  0  0  0  0  0
    0.9732   -2.6832    0.0000 O   0  0  0  0  0  0  0  0  0  0  0  0
    5.0745   -5.0883    0.0000 C   0  0  0  0  0  0  0  0  0  0  0  0
    1.4598   -0.6210    0.0000 C   0  0  0  0  0  0  0  0  0  0  0  0
    0.7229   -0.2224    0.0000 C   0  0  0  0  0  0  0  0  0  0  0  0
    0.0278   -0.6256    0.0000 C   0  0  0  0  0  0  0  0  0  0  0  0
    0.0278   -1.4320    0.0000 C   0  0  0  0  0  0  0  0  0  0  0  0
    0.7368   -1.8444    0.0000 C   0  0  0  0  0  0  0  0  0  0  0  0
    1.4598   -1.4366    0.0000 C   0  0  0  0  0  0  0  0  0  0  0  0
    2.9057   -1.4366    0.0000 C   0  0  0  0  0  0  0  0  0  0  0  0
    2.1827   -1.8444    0.0000 C   0  0  0  0  0  0  0  0  0  0  0  0
    3.6286   -1.8444    0.0000 C   0  0  0  0  0  0  0  0  0  0  0  0
    5.7557   -1.4598    0.0000 C   0  0  0  0  0  0  0  0  0  0  0  0
    5.1161   -1.8213    0.0000 C   0  0  0  0  0  0  0  0  0  0  0  0
    2.1966   -2.6693    0.0000 C   0  0  0  0  0  0  0  0  0  0  0  0
    2.9057   -3.0679    0.0000 C   0  0  0  0  0  0  0  0  0  0  0  0
    3.6286   -2.6600    0.0000 C   0  0  0  0  0  0  0  0  0  0  0  0
    6.4508   -2.7110    0.0000 C   0  0  0  0  0  0  0  0  0  0  0  0
    5.8252   -3.0586    0.0000 C   0  0  0  0  0  0  0  0  0  0  0  0
    4.3515   -3.0679    0.0000 C   0  0  0  0  0  0  0  0  0  0  0  0
    4.3515   -3.8835    0.0000 C   0  0  0  0  0  0  0  0  0  0  0  0
    3.6564   -4.2820    0.0000 C   0  0  0  0  0  0  0  0  0  0  0  0
    6.7567   -1.8768    0.0000 N   0  0  0  0  0  0  0  0  0  0  0  0
    5.4498   -4.0804    0.0000 N   0  0  0  0  0  0  0  0  0  0  0  0
    2.9057   -3.9136    0.0000 N   0  0  0  0  0  0  0  0  0  0  0  0
    5.0745   -2.6901    0.0000 N   0  0  0  0  0  0  0  0  0  0  0  0
  1  6  1  0  0  0  0
  6  7  1  0  0  0  0
  7  8  2  0  0  0  0
  8  9  1  0  0  0  0
  9 10  2  0  0  0  0
  4 10  1  0  0  0  0
  6 11  2  0  0  0  0
 10 11  1  0  0  0  0
  2 12  1  0  0  0  0
 11 13  1  0  0  0  0
 12 13  1  0  0  0  0
 12 14  2  0  0  0  0
  3 14  1  0  0  0  0
 15 16  1  0  0  0  0
 13 17  2  0  0  0  0
 17 18  1  0  0  0  0
 14 19  1  0  0  0  0
 18 19  2  0  0  0  0
 20 21  1  0  0  0  0
 19 22  1  0  0  0  0
 22 23  2  0  0  0  0
 23 24  1  0  0  0  0
 15 25  1  0  0  0  0
 20 25  1  0  0  0  0
  5 26  1  0  0  0  0
 23 26  1  0  0  0  0
 18 27  1  0  0  0  0
 24 27  2  0  0  0  0
 16 28  1  0  0  0  0
 21 28  1  0  0  0  0
 22 28  1  0  0  0  0
M  END
> <ID>
SCHEMBL21136819

> <InChIKey>
FDLNWWMNNKEIEZ-UHFFFAOYSA-N

> <MW>
404.85

> <Series_Name>
Series_17

$$$$
SCHEMBL21136821
  Mrv1719007171904262D 0   0.00000     0.00000     0

 35 41  0  0  1  0              1 V2000 
    4.2298   -2.9071    0.0000 C   0  0  0  0  0  0  0  0  0  0  0  0
    3.4954   -2.5234    0.0000 C   0  0  0  0  0  0  0  0  0  0  0  0
    2.7432   -2.9439    0.0000 O   0  0  0  0  0  0  0  0  0  0  0  0
    4.9314   -1.7028    0.0000 C   0  0  0  0  0  0  0  0  0  0  0  0
    5.6035   -1.1961    0.0000 C   0  0  0  0  0  0  0  0  0  0  0  0
    6.8870   -0.6995    0.0000 C   0  0  0  0  0  0  0  0  0  0  0  0
    7.7175   -0.7668    0.0000 C   0  0  0  0  0  0  0  0  0  0  0  0
    8.1181   -1.4713    0.0000 C   0  0  2  0  0  0  0  0  0  0  0  0
    8.7247   -0.8631    0.0000 C   0  0  0  0  0  0  0  0  0  0  0  0
    9.6030   -0.5120    0.0000 C   0  0  0  0  0  0  0  0  0  0  0  0
   10.3227   -0.1095    0.0000 C   0  0  0  0  0  0  0  0  0  0  0  0
   11.0620   -0.4986    0.0000 C   0  0  0  0  0  0  0  0  0  0  0  0
   11.7603   -0.1138    0.0000 C   0  0  0  0  0  0  0  0  0  0  0  0
   12.4849   -1.3381    0.0000 N   0  0  0  0  0  0  0  0  0  0  0  0
   12.4972   -0.5063    0.0000 C   0  0  0  0  0  0  0  0  0  0  0  0
   11.0607   -1.3147    0.0000 C   0  0  0  0  0  0  0  0  0  0  0  0
   11.7610   -1.7242    0.0000 C   0  0  0  0  0  0  0  0  0  0  0  0
   10.3161   -1.7232    0.0000 C   0  0  0  0  0  0  0  0  0  0  0  0
    9.6071   -1.3404    0.0000 C   0  0  0  0  0  0  0  0  0  0  0  0
    8.8819   -1.7338    0.0000 C   0  0  0  0  0  0  0  0  0  0  0  0
    8.8765   -2.5285    0.0000 C   0  0  0  0  0  0  0  0  0  0  0  0
    8.0735   -2.8067    0.0000 C   0  0  0  0  0  0  0  0  0  0  0  0
    7.6225   -2.1611    0.0000 C   0  0  1  0  0  0  0  0  0  0  0  0
    6.3938   -2.8550    0.0000 C   0  0  0  0  0  0  0  0  0  0  0  0
    5.6043   -3.0359    0.0000 C   0  0  0  0  0  0  0  0  0  0  0  0
    4.9195   -2.5129    0.0000 C   0  0  1  0  0  0  0  0  0  0  0  0
    6.7643   -2.1184    0.0000 C   0  0  1  0  0  0  0  0  0  0  0  0
    6.4075   -1.3726    0.0000 C   0  0  0  0  0  0  0  0  0  0  0  0
    4.2007   -1.3023    0.0000 C   0  0  0  0  0  0  0  0  0  0  0  0
    3.5142   -1.7073    0.0000 C   0  0  0  0  0  0  0  0  0  0  0  0
    1.2980   -3.1447    0.0000 N   0  0  0  0  0  0  0  0  0  0  0  0
    1.9550   -2.5416    0.0000 C   0  0  0  0  0  0  0  0  0  0  0  0
    2.0072   -1.7128    0.0000 O   0  0  0  0  0  0  0  0  0  0  0  0
    0.3947   -2.5492    0.0000 C   0  0  0  0  0  0  0  0  0  0  0  0
    5.7406   -2.0875    0.0000 O   0  0  0  0  0  0  0  0  0  0  0  0
  1  2  1  0  0  0  0
 26  1  1  0  0  0  0
  2  3  1  0  0  0  0
  3 32  1  0  0  0  0
  4  5  2  0  0  0  0
  5 28  1  0  0  0  0
  6  7  1  0  0  0  0
  8  7  1  0  0  0  0
  8  9  1  1  0  0  0
  8 23  1  0  0  0  0
 10 11  2  0  0  0  0
 10 19  1  0  0  0  0
 12 11  1  0  0  0  0
 12 13  1  0  0  0  0
 13 15  2  0  0  0  0
 14 15  1  0  0  0  0
 16 12  2  0  0  0  0
 16 17  1  0  0  0  0
 17 14  2  0  0  0  0
 18 16  1  0  0  0  0
 19 18  2  0  0  0  0
 20 19  1  0  0  0  0
  8 20  1  0  0  0  0
 21 22  1  0  0  0  0
 21 20  1  0  0  0  0
 23 22  1  1  0  0  0
 23 27  1  0  0  0  0
 24 25  1  0  0  0  0
 26 25  1  0  0  0  0
 26  4  1  0  0  0  0
 26 35  1  6  0  0  0
 27 24  1  0  0  0  0
 27 28  1  0  0  0  0
 27 35  1  6  0  0  0
 28  6  2  0  0  0  0
 29  4  1  0  0  0  0
 29 30  1  0  0  0  0
 30  2  1  0  0  0  0
 31 32  1  0  0  0  0
 32 33  2  0  0  0  0
 34 31  1  0  0  0  0
M  END
> <ID>
SCHEMBL21136821

> <InChIKey>
NTFSSBGPNLZLSG-VTTVUIJBSA-N

> <MW>
470.613

> <Series_Name>
Series_16

$$$$
SCHEMBL21136823
  Mrv1719007171904262D 0   0.00000     0.00000     0

 37 41  0  0  1  0              1 V2000 
    5.4527   -5.0272    0.0000 C   0  0  0  0  0  0  0  0  0  0  0  0
    5.9852   -4.4220    0.0000 C   0  0  0  0  0  0  0  0  0  0  0  0
    5.7123   -3.6138    0.0000 C   0  0  0  0  0  0  0  0  0  0  0  0
    4.3798   -4.1017    0.0000 C   0  0  0  0  0  0  0  0  0  0  0  0
    4.8975   -3.4568    0.0000 C   0  0  0  0  0  0  0  0  0  0  0  0
    4.6162   -4.8926    0.0000 N   0  0  0  0  0  0  0  0  0  0  0  0
    3.5712   -3.9321    0.0000 C   0  0  0  0  0  0  0  0  0  0  0  0
    3.3005   -3.1602    0.0000 C   0  0  0  0  0  0  0  0  0  0  0  0
    1.9730   -3.6255    0.0000 C   0  0  0  0  0  0  0  0  0  0  0  0
    2.4905   -3.0038    0.0000 C   0  0  0  0  0  0  0  0  0  0  0  0
    1.2991   -4.8234    0.0000 N   0  0  0  0  0  0  0  0  0  0  0  0
    2.0675   -4.4554    0.0000 C   0  0  0  0  0  0  0  0  0  0  0  0
    0.4975   -4.2153    0.0000 N   0  0  0  0  0  0  0  0  0  0  0  0
    1.1620   -3.4858    0.0000 C   0  0  0  0  0  0  0  0  0  0  0  0
    0.8913   -2.7046    0.0000 C   0  0  0  0  0  0  0  0  0  0  0  0
    1.4438   -2.0805    0.0000 C   0  0  0  0  0  0  0  0  0  0  0  0
    2.7700   -1.5825    0.0000 C   0  0  0  0  0  0  0  0  0  0  0  0
    2.2207   -2.2262    0.0000 C   0  0  0  0  0  0  0  0  0  0  0  0
    3.8280   -2.5292    0.0000 C   0  0  0  0  0  0  0  0  0  0  0  0
    3.5565   -1.7352    0.0000 C   0  0  0  0  0  0  0  0  0  0  0  0
    3.2937   -0.9670    0.0000 C   0  0  0  0  0  0  0  0  0  0  0  0
    4.6395   -2.6960    0.0000 C   0  0  0  0  0  0  0  0  0  0  0  0
    6.2193   -2.9991    0.0000 N   0  0  0  0  0  0  0  0  0  0  0  0
    6.7722   -4.5609    0.0000 O   0  0  0  0  0  0  0  0  0  0  0  0
    7.5727   -2.5361    0.0000 C   0  0  0  0  0  0  0  0  0  0  0  0
    7.2836   -1.7276    0.0000 N   0  0  0  0  0  0  0  0  0  0  0  0
    7.0402   -3.1379    0.0000 C   0  0  2  0  0  0  0  0  0  0  0  0
    8.9091   -2.0587    0.0000 C   0  0  0  0  0  0  0  0  0  0  0  0
    8.3851   -2.6743    0.0000 C   0  0  0  0  0  0  0  0  0  0  0  0
    8.6242   -1.2577    0.0000 O   0  0  0  0  0  0  0  0  0  0  0  0
    9.7306   -2.1875    0.0000 C   0  0  0  0  0  0  0  0  0  0  0  0
    9.1846   -2.8164    0.0000 C   0  0  0  0  0  0  0  0  0  0  0  0
    5.9791   -2.2080    0.0000 C   0  0  0  0  0  0  0  0  0  0  0  0
    6.5144   -1.5812    0.0000 C   0  0  0  0  0  0  0  0  0  0  0  0
    7.5600   -0.3179    0.0000 O   0  0  0  0  0  0  0  0  0  0  0  0
    7.7783   -1.1636    0.0000 C   0  0  0  0  0  0  0  0  0  0  0  0
    7.3227   -3.9258    0.0000 C   0  0  0  0  0  0  0  0  0  0  0  0
  1  2  2  0  0  0  0
  2 24  1  0  0  0  0
  3  2  1  0  0  0  0
  3 23  1  0  0  0  0
  4  5  1  0  0  0  0
  4  6  2  0  0  0  0
  5  3  2  0  0  0  0
  6  1  1  0  0  0  0
  7  4  1  0  0  0  0
  8  7  2  0  0  0  0
  8 19  1  0  0  0  0
  9 10  1  0  0  0  0
  9 12  1  0  0  0  0
 10  8  1  0  0  0  0
 11 12  2  0  0  0  0
 13 14  1  0  0  0  0
 14  9  2  0  0  0  0
 15 14  1  0  0  0  0
 15 16  2  0  0  0  0
 16 18  1  0  0  0  0
 17 18  1  0  0  0  0
 18 10  2  0  0  0  0
 19 22  2  0  0  0  0
 20 21  3  0  0  0  0
 20 19  1  0  0  0  0
 22  5  1  0  0  0  0
 25 26  1  0  0  0  0
 26 34  1  0  0  0  0
 27 25  1  0  0  0  0
 27 37  1  0  0  0  0
 27 23  1  6  0  0  0
 28 29  1  0  0  0  0
 28 30  1  0  0  0  0
 28 31  1  0  0  0  0
 32 28  1  0  0  0  0
 33 34  1  0  0  0  0
 33 23  1  0  0  0  0
 35 36  2  0  0  0  0
 36 30  1  0  0  0  0
 36 26  1  0  0  0  0
 37 24  1  0  0  0  0
M  END
> <ID>
SCHEMBL21136823

> <InChIKey>
PBQBLTRFUAFWGJ-LJQANCHMSA-N

> <MW>
497.599

> <Series_Name>
Series_17

$$$$
SCHEMBL21136824
  Mrv1719007171904262D 0   0.00000     0.00000     0

 35 40  0  0  0  0              1 V2000 
    4.8858    1.5425    0.0000 O   0  0  0  0  0  0  0  0  0  0  0  0
    0.0000    1.2251    0.0000 C   0  0  0  0  0  0  0  0  0  0  0  0
    1.3024    2.0005    0.0000 O   0  0  0  0  0  0  0  0  0  0  0  0
    6.0713    1.6065    0.0000 C   0  0  2  0  0  0  0  0  0  0  0  0
   10.3956    3.2377    0.0000 C   0  0  0  0  0  0  0  0  0  0  0  0
    9.6682    3.6238    0.0000 C   0  0  0  0  0  0  0  0  0  0  0  0
    9.0350    3.3005    0.0000 C   0  0  0  0  0  0  0  0  0  0  0  0
    8.9272    2.4069    0.0000 C   0  0  0  0  0  0  0  0  0  0  0  0
   11.8505    3.2197    0.0000 C   0  0  0  0  0  0  0  0  0  0  0  0
   11.1635    3.6104    0.0000 C   0  0  0  0  0  0  0  0  0  0  0  0
   10.3956    2.4204    0.0000 C   0  0  0  0  0  0  0  0  0  0  0  0
    7.4252    2.2565    0.0000 C   0  0  0  0  0  0  0  0  0  0  0  0
    7.0277    2.9638    0.0000 C   0  0  0  0  0  0  0  0  0  0  0  0
    6.2868    3.0310    0.0000 C   0  0  0  0  0  0  0  0  0  0  0  0
    5.7121    2.3575    0.0000 C   0  0  0  0  0  0  0  0  0  0  0  0
    4.8993    2.5327    0.0000 C   0  0  0  0  0  0  0  0  0  0  0  0
    4.2257    2.0252    0.0000 C   0  0  0  0  0  0  0  0  0  0  0  0
    3.4713    2.4249    0.0000 C   0  0  0  0  0  0  0  0  0  0  0  0
    2.7843    2.0073    0.0000 C   0  0  0  0  0  0  0  0  0  0  0  0
    2.7843    1.2079    0.0000 C   0  0  0  0  0  0  0  0  0  0  0  0
    9.6547    2.0073    0.0000 C   0  0  0  0  0  0  0  0  0  0  0  0
    8.2087    1.9983    0.0000 C   0  0  0  0  0  0  0  0  0  0  0  0
   11.0961    2.0073    0.0000 C   0  0  0  0  0  0  0  0  0  0  0  0
    6.9514    1.5582    0.0000 C   0  0  0  0  0  0  0  0  0  0  0  0
    4.2257    1.2079    0.0000 C   0  0  0  0  0  0  0  0  0  0  0  0
    8.1998    1.1990    0.0000 C   0  0  0  0  0  0  0  0  0  0  0  0
    7.4588    0.9160    0.0000 C   0  0  0  0  0  0  0  0  0  0  0  0
    1.3743    1.1810    0.0000 C   0  0  0  0  0  0  0  0  0  0  0  0
    5.6941    0.8621    0.0000 C   0  0  0  0  0  0  0  0  0  0  0  0
    4.9935    0.7005    0.0000 C   0  0  0  0  0  0  0  0  0  0  0  0
    3.5252    0.8083    0.0000 C   0  0  0  0  0  0  0  0  0  0  0  0
   11.8439    2.3778    0.0000 N   0  0  0  0  0  0  0  0  0  0  0  0
    0.5462    0.8209    0.0000 N   0  0  0  0  0  0  0  0  0  0  0  0
    2.0500    0.7612    0.0000 O   0  0  0  0  0  0  0  0  0  0  0  0
    7.8569    2.7811    0.0000 C   0  0  0  0  0  0  0  0  0  0  0  0
  5  6  1  0  0  0  0
  6  7  2  0  0  0  0
  7  8  1  0  0  0  0
  9 10  2  0  0  0  0
  5 10  1  0  0  0  0
  5 11  2  0  0  0  0
 33  2  1  0  0  0  0
 12 13  1  0  0  0  0
 13 14  1  0  0  0  0
 14 15  2  0  0  0  0
  4 15  1  0  0  0  0
 15 16  1  0  0  0  0
 16 17  2  0  0  0  0
 17 18  1  0  0  0  0
 18 19  1  0  0  0  0
 19 20  1  0  0  0  0
 11 21  1  0  0  0  0
  8 21  2  0  0  0  0
  8 22  1  0  0  0  0
 12 22  1  0  0  0  0
 11 23  1  0  0  0  0
 12 24  1  0  0  0  0
  4 24  1  0  0  0  0
 17 25  1  0  0  0  0
 22 26  1  0  0  0  0
 26 27  1  0  0  0  0
 24 27  1  0  0  0  0
  3 28  2  0  0  0  0
  4 29  1  0  0  0  0
 29 30  1  0  0  0  0
 25 30  1  0  0  0  0
 25 31  1  0  0  0  0
 20 31  1  0  0  0  0
  9 32  1  0  0  0  0
 23 32  2  0  0  0  0
 28 33  1  0  0  0  0
 20 34  1  0  0  0  0
 28 34  1  0  0  0  0
  4  1  1  6  0  0  0
 12 35  1  0  0  0  0
M  END
> <ID>
SCHEMBL21136824

> <InChIKey>
UKRVKMGZGVWHHD-CSQQYFKOSA-N

> <MW>
472.629

> <Series_Name>
Series_16

$$$$
SCHEMBL21136834
  Mrv1719007171904282D 0   0.00000     0.00000     0

 29 32  0  0  0  0              1 V2000 
    2.2988   -0.2438    0.0000 O   0  0  0  0  0  0  0  0  0  0  0  0
    5.8235   -0.8917    0.0000 C   0  0  0  0  0  0  0  0  0  0  0  0
    2.9396   -0.8220    0.0000 F   0  0  0  0  0  0  0  0  0  0  0  0
    0.7593   -2.8282    0.0000 F   0  0  0  0  0  0  0  0  0  0  0  0
    1.4768   -3.2322    0.0000 F   0  0  0  0  0  0  0  0  0  0  0  0
    5.8096   -4.0263    0.0000 C   0  0  0  0  0  0  0  0  0  0  0  0
    1.4768   -0.7895    0.0000 C   0  0  0  0  0  0  0  0  0  0  0  0
    0.7245   -0.4041    0.0000 C   0  0  0  0  0  0  0  0  0  0  0  0
    0.0279   -0.8080    0.0000 C   0  0  0  0  0  0  0  0  0  0  0  0
    0.0279   -1.5882    0.0000 C   0  0  0  0  0  0  0  0  0  0  0  0
    0.7523   -2.0016    0.0000 C   0  0  0  0  0  0  0  0  0  0  0  0
    1.4768   -1.6068    0.0000 C   0  0  0  0  0  0  0  0  0  0  0  0
    5.8096   -1.6207    0.0000 C   0  0  0  0  0  0  0  0  0  0  0  0
    2.9257   -1.6068    0.0000 C   0  0  0  0  0  0  0  0  0  0  0  0
    2.2012   -2.0016    0.0000 C   0  0  0  0  0  0  0  0  0  0  0  0
    3.6362   -2.0201    0.0000 C   0  0  0  0  0  0  0  0  0  0  0  0
    3.6362   -2.8050    0.0000 C   0  0  0  0  0  0  0  0  0  0  0  0
    5.0851   -2.0341    0.0000 C   0  0  0  0  0  0  0  0  0  0  0  0
    2.1873   -2.8050    0.0000 C   0  0  0  0  0  0  0  0  0  0  0  0
    6.5062   -2.8421    0.0000 C   0  0  0  0  0  0  0  0  0  0  0  0
    5.8235   -3.2183    0.0000 C   0  0  0  0  0  0  0  0  0  0  0  0
    2.9118   -3.2136    0.0000 C   0  0  0  0  0  0  0  0  0  0  0  0
    4.3607   -3.2276    0.0000 C   0  0  0  0  0  0  0  0  0  0  0  0
    4.3607   -4.0171    0.0000 C   0  0  0  0  0  0  0  0  0  0  0  0
    3.6501   -4.4164    0.0000 C   0  0  0  0  0  0  0  0  0  0  0  0
    5.0851   -2.8421    0.0000 N   0  0  0  0  0  0  0  0  0  0  0  0
    2.9118   -4.0403    0.0000 N   0  0  0  0  0  0  0  0  0  0  0  0
    6.7848   -2.0480    0.0000 N   0  0  0  0  0  0  0  0  0  0  0  0
    5.0851   -4.4512    0.0000 O   0  0  0  0  0  0  0  0  0  0  0  0
  1  7  1  0  0  0  0
  7  8  1  0  0  0  0
  8  9  2  0  0  0  0
  9 10  1  0  0  0  0
 10 11  2  0  0  0  0
  4 11  1  0  0  0  0
  7 12  2  0  0  0  0
 11 12  1  0  0  0  0
  2 13  1  0  0  0  0
  3 14  1  0  0  0  0
 12 15  1  0  0  0  0
 14 15  2  0  0  0  0
 14 16  1  0  0  0  0
 16 17  2  0  0  0  0
 13 18  1  0  0  0  0
 15 19  1  0  0  0  0
  5 19  1  0  0  0  0
 20 21  1  0  0  0  0
 19 22  2  0  0  0  0
 17 22  1  0  0  0  0
 17 23  1  0  0  0  0
 23 24  2  0  0  0  0
 24 25  1  0  0  0  0
 18 26  1  0  0  0  0
 21 26  1  0  0  0  0
 23 26  1  0  0  0  0
 22 27  1  0  0  0  0
 25 27  2  0  0  0  0
 13 28  1  0  0  0  0
 20 28  1  0  0  0  0
  6 29  1  0  0  0  0
 24 29  1  0  0  0  0
M  END
> <ID>
SCHEMBL21136834

> <InChIKey>
VVPKAOBVRPUPHZ-UHFFFAOYSA-N

> <MW>
403.405

> <Series_Name>
Series_17

$$$$
SCHEMBL21136849
  Mrv1719007171904302D 0   0.00000     0.00000     0

 30 33  0  0  0  0              1 V2000 
    2.6866   -0.7302    0.0000 C   0  0  0  0  0  0  0  0  0  0  0  0
    0.4409   -3.4099    0.0000 N   0  0  0  0  0  0  0  0  0  0  0  0
    1.2538   -4.0299    0.0000 N   0  0  0  0  0  0  0  0  0  0  0  0
    7.2606   -3.0999    0.0000 C   0  0  0  0  0  0  0  0  0  0  0  0
    3.7566   -1.6808    0.0000 C   0  0  0  0  0  0  0  0  0  0  0  0
    6.4065   -0.7440    0.0000 C   0  0  0  0  0  0  0  0  0  0  0  0
    5.9105   -1.3502    0.0000 C   0  0  0  0  0  0  0  0  0  0  0  0
    2.1539   -1.3639    0.0000 C   0  0  0  0  0  0  0  0  0  0  0  0
    2.4202   -2.1630    0.0000 C   0  0  0  0  0  0  0  0  0  0  0  0
    1.3502   -1.2124    0.0000 C   0  0  0  0  0  0  0  0  0  0  0  0
    0.8817   -1.7635    0.0000 C   0  0  0  0  0  0  0  0  0  0  0  0
    1.0838   -2.6590    0.0000 C   0  0  0  0  0  0  0  0  0  0  0  0
    7.5086   -1.6808    0.0000 C   0  0  0  0  0  0  0  0  0  0  0  0
    7.0264   -2.2595    0.0000 C   0  0  0  0  0  0  0  0  0  0  0  0
    4.8312   -2.6453    0.0000 C   0  0  0  0  0  0  0  0  0  0  0  0
    4.5603   -1.8324    0.0000 C   0  0  0  0  0  0  0  0  0  0  0  0
    3.2285   -2.3146    0.0000 C   0  0  0  0  0  0  0  0  0  0  0  0
    3.4443   -2.9621    0.0000 C   0  0  0  0  0  0  0  0  0  0  0  0
    4.3031   -3.2652    0.0000 C   0  0  0  0  0  0  0  0  0  0  0  0
    1.8875   -2.8060    0.0000 C   0  0  0  0  0  0  0  0  0  0  0  0
    5.6395   -2.7830    0.0000 C   0  0  0  0  0  0  0  0  0  0  0  0
    5.9059   -3.5959    0.0000 C   0  0  0  0  0  0  0  0  0  0  0  0
    1.9839   -3.6372    0.0000 C   0  0  0  0  0  0  0  0  0  0  0  0
    5.3732   -4.2297    0.0000 C   0  0  0  0  0  0  0  0  0  0  0  0
    3.4926   -0.8680    0.0000 C   0  0  0  0  0  0  0  0  0  0  0  0
    3.2239   -0.0964    0.0000 C   0  0  0  0  0  0  0  0  0  0  0  0
    4.5741   -4.0918    0.0000 N   0  0  0  0  0  0  0  0  0  0  0  0
    6.1722   -2.1699    0.0000 N   0  0  0  0  0  0  0  0  0  0  0  0
    7.4880   -0.8886    0.0000 N   0  0  0  0  0  0  0  0  0  0  0  0
    6.7233   -3.7612    0.0000 O   0  0  0  0  0  0  0  0  0  0  0  0
  6  7  1  0  0  0  0
  1  8  1  0  0  0  0
  8  9  2  0  0  0  0
  8 10  1  0  0  0  0
 10 11  2  0  0  0  0
 11 12  1  0  0  0  0
  2 12  1  0  0  0  0
 13 14  1  0  0  0  0
 15 16  1  0  0  0  0
  5 16  2  0  0  0  0
  5 17  1  0  0  0  0
  9 17  1  0  0  0  0
 17 18  2  0  0  0  0
 18 19  1  0  0  0  0
 15 19  1  0  0  0  0
  9 20  1  0  0  0  0
 12 20  2  0  0  0  0
 15 21  2  0  0  0  0
 21 22  1  0  0  0  0
 20 23  1  0  0  0  0
  3 23  2  0  0  0  0
 22 24  2  0  0  0  0
 25  5  1  0  0  0  0
 25 26  3  0  0  0  0
 19 27  2  0  0  0  0
 24 27  1  0  0  0  0
  7 28  1  0  0  0  0
 14 28  1  0  0  0  0
 21 28  1  0  0  0  0
  6 29  1  0  0  0  0
 13 29  1  0  0  0  0
  4 30  1  0  0  0  0
 22 30  1  0  0  0  0
M  END
> <ID>
SCHEMBL21136849

> <InChIKey>
RYXPKYGLSIPYEE-UHFFFAOYSA-N

> <MW>
399.498

> <Series_Name>
Series_17

$$$$
SCHEMBL21136850
  Mrv1719007171904302D 0   0.00000     0.00000     0

 30 34  0  0  1  0              1 V2000 
    4.8858   -2.7061    0.0000 C   0  0  0  0  0  0  0  0  0  0  0  0
    5.6822   -2.8382    0.0000 C   0  0  0  0  0  0  0  0  0  0  0  0
    4.3567   -3.3188    0.0000 C   0  0  0  0  0  0  0  0  0  0  0  0
    4.5954   -4.1167    0.0000 N   0  0  0  0  0  0  0  0  0  0  0  0
    3.2799   -2.3751    0.0000 C   0  0  0  0  0  0  0  0  0  0  0  0
    3.5587   -3.1605    0.0000 C   0  0  0  0  0  0  0  0  0  0  0  0
    2.4770   -2.2088    0.0000 C   0  0  0  0  0  0  0  0  0  0  0  0
    1.9437   -2.8599    0.0000 C   0  0  0  0  0  0  0  0  0  0  0  0
    2.0421   -3.6976    0.0000 C   0  0  0  0  0  0  0  0  0  0  0  0
    1.2993   -4.0620    0.0000 N   0  0  0  0  0  0  0  0  0  0  0  0
    1.1672   -2.7055    0.0000 C   0  0  0  0  0  0  0  0  0  0  0  0
    0.4924   -3.4466    0.0000 N   0  0  0  0  0  0  0  0  0  0  0  0
    0.8958   -1.9212    0.0000 C   0  0  0  0  0  0  0  0  0  0  0  0
    1.4247   -1.2727    0.0000 C   0  0  0  0  0  0  0  0  0  0  0  0
    2.2269   -1.4324    0.0000 C   0  0  0  0  0  0  0  0  0  0  0  0
    2.7484   -0.7932    0.0000 C   0  0  0  0  0  0  0  0  0  0  0  0
    3.8167   -1.7465    0.0000 C   0  0  0  0  0  0  0  0  0  0  0  0
    3.2975   -0.1899    0.0000 C   0  0  0  0  0  0  0  0  0  0  0  0
    3.5523   -0.9535    0.0000 C   0  0  0  0  0  0  0  0  0  0  0  0
    4.6130   -1.9004    0.0000 C   0  0  0  0  0  0  0  0  0  0  0  0
    6.1819   -2.2157    0.0000 N   0  0  0  0  0  0  0  0  0  0  0  0
    5.9357   -3.6434    0.0000 C   0  0  0  0  0  0  0  0  0  0  0  0
    6.7153   -3.8021    0.0000 O   0  0  0  0  0  0  0  0  0  0  0  0
    5.4092   -4.2773    0.0000 C   0  0  0  0  0  0  0  0  0  0  0  0
    7.5282   -1.7238    0.0000 C   0  0  0  0  0  0  0  0  0  0  0  0
    7.4880   -0.9437    0.0000 N   0  0  0  0  0  0  0  0  0  0  0  0
    6.9988   -2.3537    0.0000 C   0  0  2  0  0  0  0  0  0  0  0  0
    5.9467   -1.4077    0.0000 C   0  0  0  0  0  0  0  0  0  0  0  0
    6.4851   -0.7866    0.0000 C   0  0  0  0  0  0  0  0  0  0  0  0
    7.2814   -3.1514    0.0000 C   0  0  0  0  0  0  0  0  0  0  0  0
  1  2  2  0  0  0  0
  1  3  1  0  0  0  0
  2 21  1  0  0  0  0
  3  4  2  0  0  0  0
  4 24  1  0  0  0  0
  5  6  2  0  0  0  0
  5 17  1  0  0  0  0
  6  3  1  0  0  0  0
  7  8  1  0  0  0  0
  7  5  1  0  0  0  0
  8  9  1  0  0  0  0
 10  9  2  0  0  0  0
 11  8  2  0  0  0  0
 11 13  1  0  0  0  0
 12 11  1  0  0  0  0
 13 14  2  0  0  0  0
 14 15  1  0  0  0  0
 15  7  2  0  0  0  0
 16 15  1  0  0  0  0
 17 20  2  0  0  0  0
 18 19  3  0  0  0  0
 19 17  1  0  0  0  0
 20  1  1  0  0  0  0
 22  2  1  0  0  0  0
 22 23  1  0  0  0  0
 24 22  2  0  0  0  0
 25 26  1  0  0  0  0
 26 29  1  0  0  0  0
 27 25  1  0  0  0  0
 27 21  1  6  0  0  0
 27 30  1  0  0  0  0
 28 29  1  0  0  0  0
 28 21  1  0  0  0  0
 30 23  1  0  0  0  0
M  END
> <ID>
SCHEMBL21136850

> <InChIKey>
BQLJCZVSGZGTQN-MRXNPFEDSA-N

> <MW>
397.482

> <Series_Name>
Series_17

$$$$
SCHEMBL21136851
  Mrv1719007171904302D 0   0.00000     0.00000     0

 48 53  0  0  0  0              1 V2000 
    6.0620   -1.4140    0.0000 C   0  0  0  0  0  0  0  0  0  0  0  0
    0.0420   -1.9180    0.0000 C   0  0  0  0  0  0  0  0  0  0  0  0
    6.7201   -1.5820    0.0000 Cl  0  0  0  0  0  0  0  0  0  0  0  0
   11.8441   -2.4780    0.0000 C   0  0  0  0  0  0  0  0  0  0  0  0
   13.2302   -2.0301    0.0000 C   0  0  0  0  0  0  0  0  0  0  0  0
   12.6561   -2.6320    0.0000 C   0  0  0  0  0  0  0  0  0  0  0  0
    6.3490   -4.3470    0.0000 F   0  0  0  0  0  0  0  0  0  0  0  0
   10.7380   -3.7101    0.0000 C   0  0  0  0  0  0  0  0  0  0  0  0
    5.7400   -4.9000    0.0000 C   0  0  0  0  0  0  0  0  0  0  0  0
   12.3971   -1.8901    0.0000 C   0  0  0  0  0  0  0  0  0  0  0  0
    5.5207   -2.0161    0.0000 C   0  0  0  0  0  0  0  0  0  0  0  0
    9.8701   -1.4560    0.0000 C   0  0  0  0  0  0  0  0  0  0  0  0
    9.3801   -2.0021    0.0000 C   0  0  0  0  0  0  0  0  0  0  0  0
    7.1633   -2.3240    0.0000 C   0  0  0  0  0  0  0  0  0  0  0  0
    4.6901   -1.8620    0.0000 C   0  0  0  0  0  0  0  0  0  0  0  0
    4.1580   -2.4500    0.0000 C   0  0  0  0  0  0  0  0  0  0  0  0
    4.4194   -3.2480    0.0000 C   0  0  0  0  0  0  0  0  0  0  0  0
   11.0040   -2.3521    0.0000 C   0  0  0  0  0  0  0  0  0  0  0  0
   10.4720   -2.9400    0.0000 C   0  0  0  0  0  0  0  0  0  0  0  0
    1.4187   -2.2914    0.0000 C   0  0  0  0  0  0  0  0  0  0  0  0
    5.7913   -2.7860    0.0000 C   0  0  0  0  0  0  0  0  0  0  0  0
    2.5946   -3.4627    0.0000 C   0  0  0  0  0  0  0  0  0  0  0  0
    2.8140   -2.6740    0.0000 C   0  0  0  0  0  0  0  0  0  0  0  0
    2.3101   -2.1701    0.0000 C   0  0  0  0  0  0  0  0  0  0  0  0
    1.2040   -3.0940    0.0000 C   0  0  0  0  0  0  0  0  0  0  0  0
    1.7780   -3.6681    0.0000 C   0  0  0  0  0  0  0  0  0  0  0  0
    8.2601   -3.2387    0.0000 C   0  0  0  0  0  0  0  0  0  0  0  0
    7.9801   -2.4780    0.0000 C   0  0  0  0  0  0  0  0  0  0  0  0
    6.6127   -2.9353    0.0000 C   0  0  0  0  0  0  0  0  0  0  0  0
    5.2407   -3.3974    0.0000 C   0  0  0  0  0  0  0  0  0  0  0  0
    6.8834   -3.7007    0.0000 C   0  0  0  0  0  0  0  0  0  0  0  0
    9.0907   -3.4021    0.0000 C   0  0  0  0  0  0  0  0  0  0  0  0
    7.7187   -3.8640    0.0000 C   0  0  0  0  0  0  0  0  0  0  0  0
    9.3614   -4.1720    0.0000 C   0  0  0  0  0  0  0  0  0  0  0  0
    3.1780   -4.0460    0.0000 C   0  0  0  0  0  0  0  0  0  0  0  0
    8.8060   -4.7880    0.0000 C   0  0  0  0  0  0  0  0  0  0  0  0
    4.5897   -4.5173    0.0000 C   0  0  0  0  0  0  0  0  0  0  0  0
    4.4240   -5.3621    0.0000 O   0  0  0  0  0  0  0  0  0  0  0  0
   11.0180   -0.2100    0.0000 O   0  0  0  0  0  0  0  0  0  0  0  0
   11.2841   -0.9590    0.0000 C   0  0  0  0  0  0  0  0  0  0  0  0
    9.6391   -2.8210    0.0000 N   0  0  0  0  0  0  0  0  0  0  0  0
    4.0110   -3.9690    0.0000 N   0  0  0  0  0  0  0  0  0  0  0  0
   10.7380   -1.5890    0.0000 N   0  0  0  0  0  0  0  0  0  0  0  0
    5.3481   -4.2210    0.0000 N   0  0  0  0  0  0  0  0  0  0  0  0
    7.9801   -4.6550    0.0000 N   0  0  0  0  0  0  0  0  0  0  0  0
   10.1851   -4.3540    0.0000 O   0  0  0  0  0  0  0  0  0  0  0  0
   12.1170   -1.1340    0.0000 O   0  0  0  0  0  0  0  0  0  0  0  0
    0.8330   -1.7360    0.0000 O   0  0  0  0  0  0  0  0  0  0  0  0
  4 10  1  0  0  0  0
  5 10  1  0  0  0  0
  6 10  1  0  0  0  0
  1 11  1  0  0  0  0
 12 13  1  0  0  0  0
  3 14  1  0  0  0  0
 11 15  1  0  0  0  0
 15 16  2  0  0  0  0
 16 17  1  0  0  0  0
 18 19  1  0  0  0  0
 11 21  2  0  0  0  0
 22 23  1  0  0  0  0
 23 24  2  0  0  0  0
 20 24  1  0  0  0  0
 20 25  2  0  0  0  0
 25 26  1  0  0  0  0
 22 26  2  0  0  0  0
 27 28  2  0  0  0  0
 14 28  1  0  0  0  0
 14 29  2  0  0  0  0
 21 29  1  0  0  0  0
 21 30  1  0  0  0  0
 17 30  2  0  0  0  0
 29 31  1  0  0  0  0
  7 31  1  0  0  0  0
 27 32  1  0  0  0  0
 27 33  1  0  0  0  0
 31 33  2  0  0  0  0
 32 34  2  0  0  0  0
 22 35  1  0  0  0  0
 34 36  1  0  0  0  0
 37 38  2  0  0  0  0
 39 40  2  0  0  0  0
 13 41  1  0  0  0  0
 19 41  1  0  0  0  0
 32 41  1  0  0  0  0
 17 42  1  0  0  0  0
 35 42  1  0  0  0  0
 37 42  1  0  0  0  0
 12 43  1  0  0  0  0
 18 43  1  0  0  0  0
 40 43  1  0  0  0  0
  9 44  1  0  0  0  0
 30 44  1  0  0  0  0
 37 44  1  0  0  0  0
 33 45  1  0  0  0  0
 36 45  2  0  0  0  0
  8 46  1  0  0  0  0
 34 46  1  0  0  0  0
 10 47  1  0  0  0  0
 40 47  1  0  0  0  0
  2 48  1  0  0  0  0
 20 48  1  0  0  0  0
M  END
> <ID>
SCHEMBL21136851

> <InChIKey>
WWFGCNXMRHMRIS-UHFFFAOYSA-N

> <MW>
676.19

> <Series_Name>
Series_17

$$$$
SCHEMBL21136857
  Mrv1719007171904322D 0   0.00000     0.00000     0

 33 38  0  0  0  0              1 V2000 
    3.3645   -0.0417    0.0000 C   0  0  0  0  0  0  0  0  0  0  0  0
    4.1987   -0.4797    0.0000 Cl  0  0  0  0  0  0  0  0  0  0  0  0
    8.4181   -0.5075    0.0000 O   0  0  0  0  0  0  0  0  0  0  0  0
    9.8431   -1.3346    0.0000 C   0  0  0  0  0  0  0  0  0  0  0  0
    2.6554   -0.4402    0.0000 C   0  0  0  0  0  0  0  0  0  0  0  0
    1.9603   -0.0278    0.0000 C   0  0  0  0  0  0  0  0  0  0  0  0
    1.3208   -0.3615    0.0000 C   0  0  0  0  0  0  0  0  0  0  0  0
    1.2095   -1.2698    0.0000 C   0  0  0  0  0  0  0  0  0  0  0  0
    2.6461   -1.2559    0.0000 C   0  0  0  0  0  0  0  0  0  0  0  0
    4.0874   -1.2837    0.0000 C   0  0  0  0  0  0  0  0  0  0  0  0
    8.4853   -1.3346    0.0000 C   0  0  0  0  0  0  0  0  0  0  0  0
    3.3645   -1.6915    0.0000 C   0  0  0  0  0  0  0  0  0  0  0  0
    1.9139   -1.6868    0.0000 C   0  0  0  0  0  0  0  0  0  0  0  0
    1.7379   -2.5025    0.0000 C   0  0  0  0  0  0  0  0  0  0  0  0
    4.8011   -2.5350    0.0000 C   0  0  0  0  0  0  0  0  0  0  0  0
    4.8104   -1.7239    0.0000 C   0  0  0  0  0  0  0  0  0  0  0  0
    6.9375   -1.3208    0.0000 C   0  0  0  0  0  0  0  0  0  0  0  0
    6.2701   -1.6961    0.0000 C   0  0  0  0  0  0  0  0  0  0  0  0
    9.1342   -1.7379    0.0000 C   0  0  0  0  0  0  0  0  0  0  0  0
    3.3645   -2.5303    0.0000 C   0  0  0  0  0  0  0  0  0  0  0  0
    4.0782   -2.9428    0.0000 C   0  0  0  0  0  0  0  0  0  0  0  0
    7.6327   -2.5859    0.0000 C   0  0  0  0  0  0  0  0  0  0  0  0
    6.9653   -2.9705    0.0000 C   0  0  0  0  0  0  0  0  0  0  0  0
    5.5194   -2.9567    0.0000 C   0  0  0  0  0  0  0  0  0  0  0  0
    5.5194   -3.7862    0.0000 C   0  0  0  0  0  0  0  0  0  0  0  0
    6.9514   -3.7954    0.0000 C   0  0  0  0  0  0  0  0  0  0  0  0
    4.8104   -4.1987    0.0000 C   0  0  0  0  0  0  0  0  0  0  0  0
    4.0735   -3.8094    0.0000 N   0  0  0  0  0  0  0  0  0  0  0  0
    0.9176   -2.5998    0.0000 N   0  0  0  0  0  0  0  0  0  0  0  0
    6.2423   -2.5720    0.0000 N   0  0  0  0  0  0  0  0  0  0  0  0
    7.6882   -1.7517    0.0000 N   0  0  0  0  0  0  0  0  0  0  0  0
    0.3754   -1.8352    0.0000 N   0  0  0  0  0  0  0  0  0  0  0  0
    6.2284   -4.2334    0.0000 O   0  0  0  0  0  0  0  0  0  0  0  0
  1  5  1  0  0  0  0
  5  6  1  0  0  0  0
  6  7  2  0  0  0  0
  7  8  1  0  0  0  0
  5  9  2  0  0  0  0
  2 10  1  0  0  0  0
  3 11  2  0  0  0  0
  9 12  1  0  0  0  0
 10 12  1  0  0  0  0
  9 13  1  0  0  0  0
  8 13  2  0  0  0  0
 13 14  1  0  0  0  0
 15 16  1  0  0  0  0
 10 16  2  0  0  0  0
 17 18  1  0  0  0  0
  4 19  2  0  0  0  0
 11 19  1  0  0  0  0
 12 20  2  0  0  0  0
 20 21  1  0  0  0  0
 15 21  2  0  0  0  0
 22 23  1  0  0  0  0
 15 24  1  0  0  0  0
 24 25  2  0  0  0  0
 23 26  1  0  0  0  0
 25 27  1  0  0  0  0
 21 28  1  0  0  0  0
 27 28  2  0  0  0  0
 14 29  2  0  0  0  0
 18 30  1  0  0  0  0
 23 30  1  0  0  0  0
 24 30  1  0  0  0  0
 11 31  1  0  0  0  0
 17 31  1  0  0  0  0
 22 31  1  0  0  0  0
  8 32  1  0  0  0  0
 29 32  1  0  0  0  0
 25 33  1  0  0  0  0
 26 33  1  0  0  0  0
M  END
> <ID>
SCHEMBL21136857

> <InChIKey>
WVMYEIUNCJOMQJ-UHFFFAOYSA-N

> <MW>
459.93

> <Series_Name>
Series_17

$$$$
SCHEMBL21136871
  Mrv1719007171904342D 0   0.00000     0.00000     0

 28 31  0  0  0  0              1 V2000 
    2.1705   -0.2067    0.0000 F   0  0  0  0  0  0  0  0  0  0  0  0
    5.7329   -0.6615    0.0000 C   0  0  0  0  0  0  0  0  0  0  0  0
    2.9767   -0.6271    0.0000 Cl  0  0  0  0  0  0  0  0  0  0  0  0
    0.9234   -2.6804    0.0000 O   0  0  0  0  0  0  0  0  0  0  0  0
    5.7467   -3.8725    0.0000 C   0  0  0  0  0  0  0  0  0  0  0  0
    1.4470   -0.6018    0.0000 C   0  0  0  0  0  0  0  0  0  0  0  0
    0.7028   -0.2067    0.0000 C   0  0  0  0  0  0  0  0  0  0  0  0
    0.0138   -0.6064    0.0000 C   0  0  0  0  0  0  0  0  0  0  0  0
    0.0138   -1.4194    0.0000 C   0  0  0  0  0  0  0  0  0  0  0  0
    0.7304   -1.8283    0.0000 C   0  0  0  0  0  0  0  0  0  0  0  0
    1.4608   -1.4103    0.0000 C   0  0  0  0  0  0  0  0  0  0  0  0
    5.7375   -1.3965    0.0000 C   0  0  0  0  0  0  0  0  0  0  0  0
    2.8803   -1.4103    0.0000 C   0  0  0  0  0  0  0  0  0  0  0  0
    5.0852   -1.7777    0.0000 C   0  0  0  0  0  0  0  0  0  0  0  0
    2.1682   -1.8283    0.0000 C   0  0  0  0  0  0  0  0  0  0  0  0
    2.1774   -2.6598    0.0000 C   0  0  0  0  0  0  0  0  0  0  0  0
    2.8940   -3.0686    0.0000 C   0  0  0  0  0  0  0  0  0  0  0  0
    3.5969   -1.8329    0.0000 C   0  0  0  0  0  0  0  0  0  0  0  0
    3.6015   -2.6367    0.0000 C   0  0  0  0  0  0  0  0  0  0  0  0
    6.3806   -2.6873    0.0000 C   0  0  0  0  0  0  0  0  0  0  0  0
    5.7605   -3.0456    0.0000 C   0  0  0  0  0  0  0  0  0  0  0  0
    4.3180   -3.0548    0.0000 C   0  0  0  0  0  0  0  0  0  0  0  0
    4.3272   -3.8771    0.0000 C   0  0  0  0  0  0  0  0  0  0  0  0
    3.6107   -4.2997    0.0000 C   0  0  0  0  0  0  0  0  0  0  0  0
    5.0301   -2.6666    0.0000 N   0  0  0  0  0  0  0  0  0  0  0  0
    6.6562   -1.8329    0.0000 N   0  0  0  0  0  0  0  0  0  0  0  0
    2.8940   -3.9138    0.0000 N   0  0  0  0  0  0  0  0  0  0  0  0
    5.0370   -4.3204    0.0000 O   0  0  0  0  0  0  0  0  0  0  0  0
  1  6  1  0  0  0  0
  6  7  1  0  0  0  0
  7  8  2  0  0  0  0
  8  9  1  0  0  0  0
  9 10  2  0  0  0  0
  4 10  1  0  0  0  0
  6 11  2  0  0  0  0
 10 11  1  0  0  0  0
  2 12  1  0  0  0  0
  3 13  1  0  0  0  0
 12 14  1  0  0  0  0
 11 15  1  0  0  0  0
 13 15  1  0  0  0  0
 15 16  2  0  0  0  0
 16 17  1  0  0  0  0
 13 18  2  0  0  0  0
 18 19  1  0  0  0  0
 17 19  2  0  0  0  0
 20 21  1  0  0  0  0
 19 22  1  0  0  0  0
 22 23  2  0  0  0  0
 23 24  1  0  0  0  0
 14 25  1  0  0  0  0
 21 25  1  0  0  0  0
 22 25  1  0  0  0  0
 12 26  1  0  0  0  0
 20 26  1  0  0  0  0
 17 27  1  0  0  0  0
 24 27  2  0  0  0  0
  5 28  1  0  0  0  0
 23 28  1  0  0  0  0
M  END
> <ID>
SCHEMBL21136871

> <InChIKey>
MZTGDKXWVPTVKT-UHFFFAOYSA-N

> <MW>
401.87

> <Series_Name>
Series_17

$$$$
SCHEMBL21136886
  Mrv1719007171904352D 0   0.00000     0.00000     0

 29 34  0  0  0  0              1 V2000 
    3.3645   -0.0278    0.0000 C   0  0  0  0  0  0  0  0  0  0  0  0
    4.1570   -0.4727    0.0000 Cl  0  0  0  0  0  0  0  0  0  0  0  0
    2.6277   -0.4403    0.0000 C   0  0  0  0  0  0  0  0  0  0  0  0
    1.9464   -0.0278    0.0000 C   0  0  0  0  0  0  0  0  0  0  0  0
    1.3208   -0.3476    0.0000 C   0  0  0  0  0  0  0  0  0  0  0  0
    1.1956   -1.2559    0.0000 C   0  0  0  0  0  0  0  0  0  0  0  0
    2.6277   -1.2559    0.0000 C   0  0  0  0  0  0  0  0  0  0  0  0
    4.0597   -1.2559    0.0000 C   0  0  0  0  0  0  0  0  0  0  0  0
    1.8954   -1.6637    0.0000 C   0  0  0  0  0  0  0  0  0  0  0  0
    1.7101   -2.4747    0.0000 C   0  0  0  0  0  0  0  0  0  0  0  0
    3.3367   -1.6777    0.0000 C   0  0  0  0  0  0  0  0  0  0  0  0
    4.7548   -2.5072    0.0000 C   0  0  0  0  0  0  0  0  0  0  0  0
    4.7687   -1.6962    0.0000 C   0  0  0  0  0  0  0  0  0  0  0  0
    6.8959   -1.2930    0.0000 C   0  0  0  0  0  0  0  0  0  0  0  0
    6.2147   -1.6823    0.0000 C   0  0  0  0  0  0  0  0  0  0  0  0
    3.3367   -2.5025    0.0000 C   0  0  0  0  0  0  0  0  0  0  0  0
    4.0366   -2.9150    0.0000 C   0  0  0  0  0  0  0  0  0  0  0  0
    7.5771   -2.5443    0.0000 C   0  0  0  0  0  0  0  0  0  0  0  0
    6.8959   -2.9428    0.0000 C   0  0  0  0  0  0  0  0  0  0  0  0
    5.4685   -2.9289    0.0000 C   0  0  0  0  0  0  0  0  0  0  0  0
    5.4639   -3.7585    0.0000 C   0  0  0  0  0  0  0  0  0  0  0  0
    6.8959   -3.7538    0.0000 C   0  0  0  0  0  0  0  0  0  0  0  0
    4.7687   -4.1570    0.0000 C   0  0  0  0  0  0  0  0  0  0  0  0
    7.8274   -1.7309    0.0000 N   0  0  0  0  0  0  0  0  0  0  0  0
    0.9037   -2.5790    0.0000 N   0  0  0  0  0  0  0  0  0  0  0  0
    6.1729   -4.1988    0.0000 O   0  0  0  0  0  0  0  0  0  0  0  0
    4.0319   -3.7677    0.0000 N   0  0  0  0  0  0  0  0  0  0  0  0
    6.1869   -2.5443    0.0000 N   0  0  0  0  0  0  0  0  0  0  0  0
    0.3685   -1.8212    0.0000 N   0  0  0  0  0  0  0  0  0  0  0  0
  1  3  1  0  0  0  0
  3  4  1  0  0  0  0
  4  5  2  0  0  0  0
  5  6  1  0  0  0  0
  3  7  2  0  0  0  0
  2  8  1  0  0  0  0
  6  9  2  0  0  0  0
  7  9  1  0  0  0  0
  9 10  1  0  0  0  0
  7 11  1  0  0  0  0
  8 11  1  0  0  0  0
 12 13  1  0  0  0  0
  8 13  2  0  0  0  0
 14 15  1  0  0  0  0
 11 16  2  0  0  0  0
 16 17  1  0  0  0  0
 12 17  2  0  0  0  0
 18 19  1  0  0  0  0
 12 20  1  0  0  0  0
 20 21  2  0  0  0  0
 19 22  1  0  0  0  0
 21 23  1  0  0  0  0
 14 24  1  0  0  0  0
 18 24  1  0  0  0  0
 10 25  2  0  0  0  0
 21 26  1  0  0  0  0
 22 26  1  0  0  0  0
 17 27  1  0  0  0  0
 23 27  2  0  0  0  0
 15 28  1  0  0  0  0
 19 28  1  0  0  0  0
 20 28  1  0  0  0  0
  6 29  1  0  0  0  0
 25 29  1  0  0  0  0
M  END
> <ID>
SCHEMBL21136886

> <InChIKey>
OOJHNEVHIJILEQ-UHFFFAOYSA-N

> <MW>
405.89

> <Series_Name>
Series_17

$$$$
SCHEMBL21136910
  Mrv1719007171904392D 0   0.00000     0.00000     0

 36 39  0  0  0  0              1 V2000 
    7.8596   -0.2055    0.0000 O   0  0  0  0  0  0  0  0  0  0  0  0
   10.3330   -1.7718    0.0000 C   0  0  0  0  0  0  0  0  0  0  0  0
    9.8510   -2.4380    0.0000 C   0  0  0  0  0  0  0  0  0  0  0  0
    9.0006   -2.3671    0.0000 C   0  0  0  0  0  0  0  0  0  0  0  0
    2.9624   -1.9702    0.0000 C   0  0  0  0  0  0  0  0  0  0  0  0
    3.6002   -2.0482    0.0000 Cl  0  0  0  0  0  0  0  0  0  0  0  0
    2.8561   -4.8547    0.0000 O   0  0  0  0  0  0  0  0  0  0  0  0
    8.0084   -3.7561    0.0000 C   0  0  0  0  0  0  0  0  0  0  0  0
    0.6095   -4.7696    0.0000 N   0  0  0  0  0  0  0  0  0  0  0  0
    3.8341   -4.9610    0.0000 F   0  0  0  0  0  0  0  0  0  0  0  0
    8.1879   -0.9591    0.0000 C   0  0  0  0  0  0  0  0  0  0  0  0
    9.4683   -1.7363    0.0000 C   0  0  0  0  0  0  0  0  0  0  0  0
    6.8461   -1.5875    0.0000 C   0  0  0  0  0  0  0  0  0  0  0  0
    6.4209   -2.1828    0.0000 C   0  0  0  0  0  0  0  0  0  0  0  0
    2.4852   -2.6364    0.0000 C   0  0  0  0  0  0  0  0  0  0  0  0
    8.1077   -2.3529    0.0000 C   0  0  0  0  0  0  0  0  0  0  0  0
    7.6966   -2.9340    0.0000 C   0  0  0  0  0  0  0  0  0  0  0  0
    4.1908   -2.7640    0.0000 C   0  0  0  0  0  0  0  0  0  0  0  0
    1.6017   -2.5939    0.0000 C   0  0  0  0  0  0  0  0  0  0  0  0
    1.1339   -3.2600    0.0000 C   0  0  0  0  0  0  0  0  0  0  0  0
    1.4978   -3.9829    0.0000 C   0  0  0  0  0  0  0  0  0  0  0  0
    2.8443   -3.3735    0.0000 C   0  0  0  0  0  0  0  0  0  0  0  0
    5.4240   -3.5577    0.0000 C   0  0  0  0  0  0  0  0  0  0  0  0
    5.0601   -2.8207    0.0000 C   0  0  0  0  0  0  0  0  0  0  0  0
    3.7184   -3.4301    0.0000 C   0  0  0  0  0  0  0  0  0  0  0  0
    6.2981   -3.6144    0.0000 C   0  0  0  0  0  0  0  0  0  0  0  0
    2.3576   -4.0397    0.0000 C   0  0  0  0  0  0  0  0  0  0  0  0
    4.0916   -4.1672    0.0000 C   0  0  0  0  0  0  0  0  0  0  0  0
    4.9515   -4.2239    0.0000 C   0  0  0  0  0  0  0  0  0  0  0  0
    6.6713   -4.3514    0.0000 C   0  0  0  0  0  0  0  0  0  0  0  0
    6.1941   -5.0176    0.0000 C   0  0  0  0  0  0  0  0  0  0  0  0
    9.0928   -0.9993    0.0000 O   0  0  0  0  0  0  0  0  0  0  0  0
    5.3224   -4.9893    0.0000 N   0  0  0  0  0  0  0  0  0  0  0  0
    7.7462   -1.6158    0.0000 N   0  0  0  0  0  0  0  0  0  0  0  0
    6.7752   -2.9624    0.0000 N   0  0  0  0  0  0  0  0  0  0  0  0
    7.5265   -4.4294    0.0000 O   0  0  0  0  0  0  0  0  0  0  0  0
  1 11  2  0  0  0  0
  2 12  1  0  0  0  0
  3 12  1  0  0  0  0
  4 12  1  0  0  0  0
 13 14  1  0  0  0  0
  5 15  1  0  0  0  0
 16 17  1  0  0  0  0
  6 18  1  0  0  0  0
 15 19  2  0  0  0  0
 19 20  1  0  0  0  0
 20 21  2  0  0  0  0
  9 21  1  0  0  0  0
 15 22  1  0  0  0  0
 23 24  2  0  0  0  0
 18 24  1  0  0  0  0
 18 25  2  0  0  0  0
 22 25  1  0  0  0  0
 23 26  1  0  0  0  0
 22 27  2  0  0  0  0
  7 27  1  0  0  0  0
 21 27  1  0  0  0  0
 25 28  1  0  0  0  0
 10 28  1  0  0  0  0
 23 29  1  0  0  0  0
 28 29  2  0  0  0  0
 26 30  2  0  0  0  0
 30 31  1  0  0  0  0
 11 32  1  0  0  0  0
 12 32  1  0  0  0  0
 29 33  1  0  0  0  0
 31 33  2  0  0  0  0
 11 34  1  0  0  0  0
 13 34  1  0  0  0  0
 16 34  1  0  0  0  0
 14 35  1  0  0  0  0
 17 35  1  0  0  0  0
 26 35  1  0  0  0  0
  8 36  1  0  0  0  0
 30 36  1  0  0  0  0
M  END
> <ID>
SCHEMBL21136910

> <InChIKey>
ZSHACJAAYHVYCI-UHFFFAOYSA-N

> <MW>
517.0

> <Series_Name>
Series_17

$$$$
SCHEMBL21136914
  Mrv1719007171904392D 0   0.00000     0.00000     0

 28 31  0  0  0  0              1 V2000 
    2.2102   -0.2363    0.0000 F   0  0  0  0  0  0  0  0  0  0  0  0
    2.9331   -0.6464    0.0000 F   0  0  0  0  0  0  0  0  0  0  0  0
    0.9730   -2.6690    0.0000 O   0  0  0  0  0  0  0  0  0  0  0  0
    1.5986   -3.2528    0.0000 F   0  0  0  0  0  0  0  0  0  0  0  0
    5.0461   -5.1017    0.0000 C   0  0  0  0  0  0  0  0  0  0  0  0
    1.4735   -0.6209    0.0000 C   0  0  0  0  0  0  0  0  0  0  0  0
    0.7645   -0.2085    0.0000 C   0  0  0  0  0  0  0  0  0  0  0  0
    0.0278   -0.6116    0.0000 C   0  0  0  0  0  0  0  0  0  0  0  0
    0.0278   -1.4040    0.0000 C   0  0  0  0  0  0  0  0  0  0  0  0
    0.7367   -1.8303    0.0000 C   0  0  0  0  0  0  0  0  0  0  0  0
    1.4642   -1.4225    0.0000 C   0  0  0  0  0  0  0  0  0  0  0  0
    2.9053   -1.4364    0.0000 C   0  0  0  0  0  0  0  0  0  0  0  0
    2.1824   -1.8442    0.0000 C   0  0  0  0  0  0  0  0  0  0  0  0
    3.6281   -2.6597    0.0000 C   0  0  0  0  0  0  0  0  0  0  0  0
    3.6281   -1.8627    0.0000 C   0  0  0  0  0  0  0  0  0  0  0  0
    5.7689   -1.4735    0.0000 C   0  0  0  0  0  0  0  0  0  0  0  0
    5.1156   -1.8349    0.0000 C   0  0  0  0  0  0  0  0  0  0  0  0
    2.1824   -2.6597    0.0000 C   0  0  0  0  0  0  0  0  0  0  0  0
    6.4779   -2.7107    0.0000 C   0  0  0  0  0  0  0  0  0  0  0  0
    5.8245   -3.0721    0.0000 C   0  0  0  0  0  0  0  0  0  0  0  0
    2.8914   -3.0675    0.0000 C   0  0  0  0  0  0  0  0  0  0  0  0
    4.3371   -3.0814    0.0000 C   0  0  0  0  0  0  0  0  0  0  0  0
    4.3371   -3.8830    0.0000 C   0  0  0  0  0  0  0  0  0  0  0  0
    3.6281   -4.2814    0.0000 C   0  0  0  0  0  0  0  0  0  0  0  0
    5.4352   -4.0800    0.0000 N   0  0  0  0  0  0  0  0  0  0  0  0
    5.0600   -2.6968    0.0000 N   0  0  0  0  0  0  0  0  0  0  0  0
    2.8914   -3.8993    0.0000 N   0  0  0  0  0  0  0  0  0  0  0  0
    6.7697   -1.8975    0.0000 N   0  0  0  0  0  0  0  0  0  0  0  0
  1  6  1  0  0  0  0
  6  7  2  0  0  0  0
  7  8  1  0  0  0  0
  8  9  2  0  0  0  0
  9 10  1  0  0  0  0
  3 10  1  0  0  0  0
  6 11  1  0  0  0  0
 10 11  2  0  0  0  0
  2 12  1  0  0  0  0
 11 13  1  0  0  0  0
 12 13  1  0  0  0  0
 14 15  1  0  0  0  0
 12 15  2  0  0  0  0
 16 17  1  0  0  0  0
 13 18  2  0  0  0  0
  4 18  1  0  0  0  0
 19 20  1  0  0  0  0
 18 21  1  0  0  0  0
 14 21  2  0  0  0  0
 14 22  1  0  0  0  0
 22 23  2  0  0  0  0
 23 24  1  0  0  0  0
  5 25  1  0  0  0  0
 23 25  1  0  0  0  0
 17 26  1  0  0  0  0
 20 26  1  0  0  0  0
 22 26  1  0  0  0  0
 21 27  1  0  0  0  0
 24 27  2  0  0  0  0
 16 28  1  0  0  0  0
 19 28  1  0  0  0  0
M  END
> <ID>
SCHEMBL21136914

> <InChIKey>
ICZMZWHVLRAZOH-UHFFFAOYSA-N

> <MW>
388.394

> <Series_Name>
Series_17

$$$$
SCHEMBL21136916
  Mrv1719007171904392D 0   0.00000     0.00000     0

 31 35  0  0  0  0              1 V2000 
    2.1850   -0.2044    0.0000 F   0  0  0  0  0  0  0  0  0  0  0  0
    2.8193   -0.3665    0.0000 Cl  0  0  0  0  0  0  0  0  0  0  0  0
    6.7804   -2.5233    0.0000 C   0  0  0  0  0  0  0  0  0  0  0  0
    5.8782   -0.2537    0.0000 C   0  0  0  0  0  0  0  0  0  0  0  0
    5.4271   -0.8035    0.0000 C   0  0  0  0  0  0  0  0  0  0  0  0
    1.6399   -0.8317    0.0000 C   0  0  0  0  0  0  0  0  0  0  0  0
    1.9124   -1.6210    0.0000 C   0  0  0  0  0  0  0  0  0  0  0  0
    7.0341   -1.1137    0.0000 C   0  0  0  0  0  0  0  0  0  0  0  0
    6.5266   -1.7197    0.0000 C   0  0  0  0  0  0  0  0  0  0  0  0
    0.8317   -0.6907    0.0000 C   0  0  0  0  0  0  0  0  0  0  0  0
    0.4229   -1.1559    0.0000 C   0  0  0  0  0  0  0  0  0  0  0  0
    0.5732   -2.1004    0.0000 C   0  0  0  0  0  0  0  0  0  0  0  0
    4.3417   -2.0628    0.0000 C   0  0  0  0  0  0  0  0  0  0  0  0
    4.0739   -1.2828    0.0000 C   0  0  0  0  0  0  0  0  0  0  0  0
    2.7253   -1.7620    0.0000 C   0  0  0  0  0  0  0  0  0  0  0  0
    2.9884   -2.5092    0.0000 C   0  0  0  0  0  0  0  0  0  0  0  0
    3.8107   -2.6924    0.0000 C   0  0  0  0  0  0  0  0  0  0  0  0
    1.3862   -2.2414    0.0000 C   0  0  0  0  0  0  0  0  0  0  0  0
    5.1640   -2.2132    0.0000 C   0  0  0  0  0  0  0  0  0  0  0  0
    5.4365   -3.0025    0.0000 C   0  0  0  0  0  0  0  0  0  0  0  0
    0.0423   -2.7488    0.0000 C   0  0  0  0  0  0  0  0  0  0  0  0
    0.3101   -3.4959    0.0000 C   0  0  0  0  0  0  0  0  0  0  0  0
    4.9056   -3.6228    0.0000 C   0  0  0  0  0  0  0  0  0  0  0  0
    1.6422   -3.0354    0.0000 C   0  0  0  0  0  0  0  0  0  0  0  0
    2.4669   -3.1858    0.0000 C   0  0  0  0  0  0  0  0  0  0  0  0
    3.2351   -1.1488    0.0000 C   0  0  0  0  0  0  0  0  0  0  0  0
    1.1207   -3.6722    0.0000 N   0  0  0  0  0  0  0  0  0  0  0  0
    4.0880   -3.4889    0.0000 N   0  0  0  0  0  0  0  0  0  0  0  0
    5.6949   -1.5858    0.0000 N   0  0  0  0  0  0  0  0  0  0  0  0
    6.9706   -0.3242    0.0000 N   0  0  0  0  0  0  0  0  0  0  0  0
    6.2448   -3.1576    0.0000 C   0  0  0  0  0  0  0  0  0  0  0  0
  4  5  1  0  0  0  0
  1  6  1  0  0  0  0
  6  7  1  0  0  0  0
  8  9  1  0  0  0  0
  6 10  2  0  0  0  0
 10 11  1  0  0  0  0
 11 12  2  0  0  0  0
 13 14  1  0  0  0  0
  7 15  1  0  0  0  0
 15 16  2  0  0  0  0
 16 17  1  0  0  0  0
 13 17  2  0  0  0  0
  7 18  2  0  0  0  0
 12 18  1  0  0  0  0
 13 19  1  0  0  0  0
 19 20  2  0  0  0  0
 12 21  1  0  0  0  0
 21 22  2  0  0  0  0
 20 23  1  0  0  0  0
 18 24  1  0  0  0  0
 24 25  2  0  0  0  0
  2 26  1  0  0  0  0
 14 26  2  0  0  0  0
 15 26  1  0  0  0  0
 22 27  1  0  0  0  0
 24 27  1  0  0  0  0
 17 28  1  0  0  0  0
 23 28  2  0  0  0  0
  5 29  1  0  0  0  0
  9 29  1  0  0  0  0
 19 29  1  0  0  0  0
  4 30  1  0  0  0  0
  8 30  1  0  0  0  0
  3 31  1  0  0  0  0
 20 31  1  0  0  0  0
M  END
> <ID>
SCHEMBL21136916

> <InChIKey>
LKCJZZCLBUEDIG-UHFFFAOYSA-N

> <MW>
434.94

> <Series_Name>
Series_17

$$$$
SCHEMBL21136932
  Mrv1719007171904432D 0   0.00000     0.00000     0

 31 35  0  0  0  0              1 V2000 
    2.2236   -0.0834    0.0000 C   0  0  0  0  0  0  0  0  0  0  0  0
    2.8351   -0.2849    0.0000 Cl  0  0  0  0  0  0  0  0  0  0  0  0
    6.8933   -2.4043    0.0000 C   0  0  0  0  0  0  0  0  0  0  0  0
    1.6724   -0.6810    0.0000 C   0  0  0  0  0  0  0  0  0  0  0  0
    1.9550   -1.4593    0.0000 C   0  0  0  0  0  0  0  0  0  0  0  0
    6.0594   -0.0973    0.0000 C   0  0  0  0  0  0  0  0  0  0  0  0
    5.5313   -0.6949    0.0000 C   0  0  0  0  0  0  0  0  0  0  0  0
    0.8478   -0.5420    0.0000 C   0  0  0  0  0  0  0  0  0  0  0  0
    0.4169   -1.0146    0.0000 C   0  0  0  0  0  0  0  0  0  0  0  0
    0.5698   -1.9226    0.0000 C   0  0  0  0  0  0  0  0  0  0  0  0
    3.3308   -1.0006    0.0000 C   0  0  0  0  0  0  0  0  0  0  0  0
    7.1713   -1.0146    0.0000 C   0  0  0  0  0  0  0  0  0  0  0  0
    6.6431   -1.6121    0.0000 C   0  0  0  0  0  0  0  0  0  0  0  0
    4.1415   -1.1535    0.0000 C   0  0  0  0  0  0  0  0  0  0  0  0
    4.4195   -1.9226    0.0000 C   0  0  0  0  0  0  0  0  0  0  0  0
    3.0575   -2.3904    0.0000 C   0  0  0  0  0  0  0  0  0  0  0  0
    3.8682   -2.5433    0.0000 C   0  0  0  0  0  0  0  0  0  0  0  0
    1.3944   -2.0708    0.0000 C   0  0  0  0  0  0  0  0  0  0  0  0
    5.2534   -2.0800    0.0000 C   0  0  0  0  0  0  0  0  0  0  0  0
    0.0278   -2.5433    0.0000 C   0  0  0  0  0  0  0  0  0  0  0  0
    0.2918   -3.2938    0.0000 C   0  0  0  0  0  0  0  0  0  0  0  0
    5.5174   -2.8537    0.0000 C   0  0  0  0  0  0  0  0  0  0  0  0
    4.9893   -3.4606    0.0000 C   0  0  0  0  0  0  0  0  0  0  0  0
    1.6538   -2.8468    0.0000 C   0  0  0  0  0  0  0  0  0  0  0  0
    2.5016   -3.0297    0.0000 O   0  0  0  0  0  0  0  0  0  0  0  0
    2.7865   -1.6816    0.0000 C   0  0  0  0  0  0  0  0  0  0  0  0
    1.1188   -3.4884    0.0000 N   0  0  0  0  0  0  0  0  0  0  0  0
    4.1415   -3.3424    0.0000 N   0  0  0  0  0  0  0  0  0  0  0  0
    5.7954   -1.4940    0.0000 N   0  0  0  0  0  0  0  0  0  0  0  0
    7.1504   -0.2571    0.0000 N   0  0  0  0  0  0  0  0  0  0  0  0
    6.3513   -3.0297    0.0000 O   0  0  0  0  0  0  0  0  0  0  0  0
  1  4  1  0  0  0  0
  4  5  2  0  0  0  0
  6  7  1  0  0  0  0
  4  8  1  0  0  0  0
  8  9  2  0  0  0  0
  9 10  1  0  0  0  0
  2 11  1  0  0  0  0
 12 13  1  0  0  0  0
 11 14  2  0  0  0  0
 14 15  1  0  0  0  0
 16 17  1  0  0  0  0
 15 17  2  0  0  0  0
  5 18  1  0  0  0  0
 10 18  2  0  0  0  0
 15 19  1  0  0  0  0
 10 20  1  0  0  0  0
 20 21  2  0  0  0  0
 19 22  2  0  0  0  0
 22 23  1  0  0  0  0
 18 24  1  0  0  0  0
 24 25  2  0  0  0  0
  5 26  1  0  0  0  0
 11 26  1  0  0  0  0
 16 26  2  0  0  0  0
 21 27  1  0  0  0  0
 24 27  1  0  0  0  0
 17 28  1  0  0  0  0
 23 28  2  0  0  0  0
  7 29  1  0  0  0  0
 13 29  1  0  0  0  0
 19 29  1  0  0  0  0
  6 30  1  0  0  0  0
 12 30  1  0  0  0  0
  3 31  1  0  0  0  0
 22 31  1  0  0  0  0
M  END
> <ID>
SCHEMBL21136932

> <InChIKey>
FNPJJUNKHRYTEH-UHFFFAOYSA-N

> <MW>
434.92

> <Series_Name>
Series_17

$$$$
SCHEMBL21136938
  Mrv1719007171904442D 0   0.00000     0.00000     0

 34 38  0  0  0  0              1 V2000 
    3.3756   -0.0281    0.0000 C   0  0  0  0  0  0  0  0  0  0  0  0
    8.3617   -0.3305    0.0000 O   0  0  0  0  0  0  0  0  0  0  0  0
    4.2125   -0.4501    0.0000 Cl  0  0  0  0  0  0  0  0  0  0  0  0
    9.8034   -1.1112    0.0000 C   0  0  0  0  0  0  0  0  0  0  0  0
    2.7567   -2.9958    0.0000 F   0  0  0  0  0  0  0  0  0  0  0  0
    7.0185   -3.6991    0.0000 C   0  0  0  0  0  0  0  0  0  0  0  0
    2.6724   -0.4595    0.0000 C   0  0  0  0  0  0  0  0  0  0  0  0
    1.9832   -0.0703    0.0000 C   0  0  0  0  0  0  0  0  0  0  0  0
    1.3643   -0.4220    0.0000 C   0  0  0  0  0  0  0  0  0  0  0  0
    1.2799   -1.3409    0.0000 C   0  0  0  0  0  0  0  0  0  0  0  0
    2.7005   -1.2987    0.0000 C   0  0  0  0  0  0  0  0  0  0  0  0
    8.3218   -1.1674    0.0000 C   0  0  0  0  0  0  0  0  0  0  0  0
    4.1211   -1.2565    0.0000 C   0  0  0  0  0  0  0  0  0  0  0  0
    9.1282   -1.5331    0.0000 C   0  0  0  0  0  0  0  0  0  0  0  0
    6.9341   -1.1955    0.0000 C   0  0  0  0  0  0  0  0  0  0  0  0
    6.3012   -1.5894    0.0000 C   0  0  0  0  0  0  0  0  0  0  0  0
    3.4178   -1.6972    0.0000 C   0  0  0  0  0  0  0  0  0  0  0  0
    4.8383   -1.6597    0.0000 C   0  0  0  0  0  0  0  0  0  0  0  0
    4.8665   -2.4942    0.0000 C   0  0  0  0  0  0  0  0  0  0  0  0
    1.9972   -1.7393    0.0000 C   0  0  0  0  0  0  0  0  0  0  0  0
    3.4459   -2.5364    0.0000 C   0  0  0  0  0  0  0  0  0  0  0  0
    7.6233   -2.4754    0.0000 C   0  0  0  0  0  0  0  0  0  0  0  0
    7.0325   -2.8411    0.0000 C   0  0  0  0  0  0  0  0  0  0  0  0
    1.0408   -2.6583    0.0000 C   0  0  0  0  0  0  0  0  0  0  0  0
    4.1633   -2.9349    0.0000 C   0  0  0  0  0  0  0  0  0  0  0  0
    5.5838   -2.8927    0.0000 C   0  0  0  0  0  0  0  0  0  0  0  0
    5.6120   -3.7319    0.0000 C   0  0  0  0  0  0  0  0  0  0  0  0
    4.9228   -4.1633    0.0000 C   0  0  0  0  0  0  0  0  0  0  0  0
    4.1844   -3.7905    0.0000 N   0  0  0  0  0  0  0  0  0  0  0  0
    1.8425   -2.5809    0.0000 N   0  0  0  0  0  0  0  0  0  0  0  0
    6.2800   -2.4825    0.0000 N   0  0  0  0  0  0  0  0  0  0  0  0
    0.4360   -1.9339    0.0000 N   0  0  0  0  0  0  0  0  0  0  0  0
    7.6795   -1.6104    0.0000 N   0  0  0  0  0  0  0  0  0  0  0  0
    6.3222   -4.1563    0.0000 O   0  0  0  0  0  0  0  0  0  0  0  0
  1  7  1  0  0  0  0
  7  8  2  0  0  0  0
  8  9  1  0  0  0  0
  9 10  2  0  0  0  0
  7 11  1  0  0  0  0
  2 12  2  0  0  0  0
  3 13  1  0  0  0  0
  4 14  2  0  0  0  0
 12 14  1  0  0  0  0
 15 16  1  0  0  0  0
 13 17  2  0  0  0  0
 11 17  1  0  0  0  0
 13 18  1  0  0  0  0
 18 19  2  0  0  0  0
 11 20  2  0  0  0  0
 10 20  1  0  0  0  0
 17 21  1  0  0  0  0
  5 21  1  0  0  0  0
 22 23  1  0  0  0  0
 19 25  1  0  0  0  0
 21 25  2  0  0  0  0
 19 26  1  0  0  0  0
 26 27  2  0  0  0  0
 27 28  1  0  0  0  0
 25 29  1  0  0  0  0
 28 29  2  0  0  0  0
 20 30  1  0  0  0  0
 24 30  2  0  0  0  0
 16 31  1  0  0  0  0
 23 31  1  0  0  0  0
 26 31  1  0  0  0  0
 10 32  1  0  0  0  0
 24 32  1  0  0  0  0
 12 33  1  0  0  0  0
 15 33  1  0  0  0  0
 22 33  1  0  0  0  0
  6 34  1  0  0  0  0
 27 34  1  0  0  0  0
M  END
> <ID>
SCHEMBL21136938

> <InChIKey>
FOBWHJXWFMEYAR-UHFFFAOYSA-N

> <MW>
479.94

> <Series_Name>
Series_17

$$$$
SCHEMBL21136941
  Mrv1719007171904452D 0   0.00000     0.00000     0

 36 40  0  0  0  0              1 V2000 
    3.0583   -0.5097    0.0000 C   0  0  0  0  0  0  0  0  0  0  0  0
    8.4997   -0.2549    0.0000 O   0  0  0  0  0  0  0  0  0  0  0  0
   10.0288   -0.8128    0.0000 C   0  0  0  0  0  0  0  0  0  0  0  0
    4.1259   -1.0125    0.0000 Cl  0  0  0  0  0  0  0  0  0  0  0  0
    3.3613   -3.7471    0.0000 F   0  0  0  0  0  0  0  0  0  0  0  0
    2.5623   -3.7746    0.0000 C   0  0  0  0  0  0  0  0  0  0  0  0
    7.6594   -3.8159    0.0000 C   0  0  0  0  0  0  0  0  0  0  0  0
    2.4383   -1.0424    0.0000 C   0  0  0  0  0  0  0  0  0  0  0  0
    8.5777   -1.0975    0.0000 C   0  0  0  0  0  0  0  0  0  0  0  0
    1.6669   -0.7577    0.0000 C   0  0  0  0  0  0  0  0  0  0  0  0
    1.1434   -1.1985    0.0000 C   0  0  0  0  0  0  0  0  0  0  0  0
    1.1847   -2.1261    0.0000 C   0  0  0  0  0  0  0  0  0  0  0  0
    9.4089   -1.3501    0.0000 C   0  0  0  0  0  0  0  0  0  0  0  0
    2.5715   -1.8735    0.0000 C   0  0  0  0  0  0  0  0  0  0  0  0
    7.2323   -1.3225    0.0000 C   0  0  0  0  0  0  0  0  0  0  0  0
    6.6537   -1.8184    0.0000 C   0  0  0  0  0  0  0  0  0  0  0  0
    4.4634   -1.8092    0.0000 C   0  0  0  0  0  0  0  0  0  0  0  0
    3.8435   -2.3510    0.0000 C   0  0  0  0  0  0  0  0  0  0  0  0
    5.3588   -2.9251    0.0000 C   0  0  0  0  0  0  0  0  0  0  0  0
    5.2348   -2.1077    0.0000 C   0  0  0  0  0  0  0  0  0  0  0  0
    1.9424   -2.4062    0.0000 C   0  0  0  0  0  0  0  0  0  0  0  0
    8.1415   -2.4383    0.0000 C   0  0  0  0  0  0  0  0  0  0  0  0
    7.5630   -2.9480    0.0000 C   0  0  0  0  0  0  0  0  0  0  0  0
    3.9675   -3.1868    0.0000 C   0  0  0  0  0  0  0  0  0  0  0  0
    6.1348   -3.2189    0.0000 C   0  0  0  0  0  0  0  0  0  0  0  0
    4.7435   -3.4669    0.0000 C   0  0  0  0  0  0  0  0  0  0  0  0
    6.2680   -4.0547    0.0000 C   0  0  0  0  0  0  0  0  0  0  0  0
    5.6619   -4.5873    0.0000 C   0  0  0  0  0  0  0  0  0  0  0  0
    0.8541   -4.2981    0.0000 O   0  0  0  0  0  0  0  0  0  0  0  0
    1.1618   -3.4876    0.0000 C   0  0  0  0  0  0  0  0  0  0  0  0
    4.8766   -4.3256    0.0000 N   0  0  0  0  0  0  0  0  0  0  0  0
    1.9148   -3.2787    0.0000 N   0  0  0  0  0  0  0  0  0  0  0  0
    0.4339   -2.8103    0.0000 N   0  0  0  0  0  0  0  0  0  0  0  0
    8.0037   -1.6256    0.0000 N   0  0  0  0  0  0  0  0  0  0  0  0
    6.7502   -2.7070    0.0000 N   0  0  0  0  0  0  0  0  0  0  0  0
    7.0326   -4.3669    0.0000 O   0  0  0  0  0  0  0  0  0  0  0  0
  1  8  1  0  0  0  0
  2  9  2  0  0  0  0
  8 10  1  0  0  0  0
 10 11  2  0  0  0  0
 11 12  1  0  0  0  0
  3 13  2  0  0  0  0
  9 13  1  0  0  0  0
  8 14  2  0  0  0  0
 15 16  1  0  0  0  0
  4 17  1  0  0  0  0
 17 18  2  0  0  0  0
 14 18  1  0  0  0  0
 19 20  2  0  0  0  0
 17 20  1  0  0  0  0
 14 21  1  0  0  0  0
 12 21  2  0  0  0  0
 22 23  1  0  0  0  0
 18 24  1  0  0  0  0
  5 24  1  0  0  0  0
 19 25  1  0  0  0  0
 19 26  1  0  0  0  0
 24 26  2  0  0  0  0
 25 27  2  0  0  0  0
 27 28  1  0  0  0  0
 29 30  2  0  0  0  0
 26 31  1  0  0  0  0
 28 31  2  0  0  0  0
  6 32  1  0  0  0  0
 21 32  1  0  0  0  0
 30 32  1  0  0  0  0
 12 33  1  0  0  0  0
 30 33  1  0  0  0  0
  9 34  1  0  0  0  0
 15 34  1  0  0  0  0
 22 34  1  0  0  0  0
 16 35  1  0  0  0  0
 23 35  1  0  0  0  0
 25 35  1  0  0  0  0
  7 36  1  0  0  0  0
 27 36  1  0  0  0  0
M  END
> <ID>
SCHEMBL21136941

> <InChIKey>
ZLOWNTMDOVBDCS-UHFFFAOYSA-N

> <MW>
509.97

> <Series_Name>
Series_17

$$$$
SCHEMBL21136942
  Mrv1719007171904452D 0   0.00000     0.00000     0

 34 37  0  0  0  0              1 V2000 
    8.1160   -0.3052    0.0000 C   0  0  0  0  0  0  0  0  0  0  0  0
    1.7827   -2.0671    0.0000 F   0  0  0  0  0  0  0  0  0  0  0  0
    2.4279   -2.1226    0.0000 Cl  0  0  0  0  0  0  0  0  0  0  0  0
    7.4847   -3.8638    0.0000 O   0  0  0  0  0  0  0  0  0  0  0  0
    1.7827   -4.9181    0.0000 O   0  0  0  0  0  0  0  0  0  0  0  0
    7.3807   -5.2719    0.0000 C   0  0  0  0  0  0  0  0  0  0  0  0
    7.6581   -0.9850    0.0000 C   0  0  0  0  0  0  0  0  0  0  0  0
    5.5078   -1.6093    0.0000 C   0  0  0  0  0  0  0  0  0  0  0  0
    5.0916   -2.2336    0.0000 C   0  0  0  0  0  0  0  0  0  0  0  0
    6.7286   -2.3862    0.0000 C   0  0  0  0  0  0  0  0  0  0  0  0
    6.3124   -3.0106    0.0000 C   0  0  0  0  0  0  0  0  0  0  0  0
    1.3087   -2.7331    0.0000 C   0  0  0  0  0  0  0  0  0  0  0  0
    2.9643   -2.8301    0.0000 C   0  0  0  0  0  0  0  0  0  0  0  0
    0.4856   -2.6776    0.0000 C   0  0  0  0  0  0  0  0  0  0  0  0
    0.0416   -3.3297    0.0000 C   0  0  0  0  0  0  0  0  0  0  0  0
    0.4023   -4.1065    0.0000 C   0  0  0  0  0  0  0  0  0  0  0  0
    1.2255   -4.1620    0.0000 C   0  0  0  0  0  0  0  0  0  0  0  0
    1.6741   -3.4683    0.0000 C   0  0  0  0  0  0  0  0  0  0  0  0
    4.1574   -3.6256    0.0000 C   0  0  0  0  0  0  0  0  0  0  0  0
    3.7874   -2.8856    0.0000 C   0  0  0  0  0  0  0  0  0  0  0  0
    2.5157   -3.5238    0.0000 C   0  0  0  0  0  0  0  0  0  0  0  0
    4.9991   -3.6857    0.0000 C   0  0  0  0  0  0  0  0  0  0  0  0
    2.8856   -4.2591    0.0000 C   0  0  0  0  0  0  0  0  0  0  0  0
    3.7088   -4.3146    0.0000 C   0  0  0  0  0  0  0  0  0  0  0  0
    5.3644   -4.4256    0.0000 C   0  0  0  0  0  0  0  0  0  0  0  0
    6.6176   -3.8429    0.0000 C   0  0  0  0  0  0  0  0  0  0  0  0
    4.8973   -5.1054    0.0000 C   0  0  0  0  0  0  0  0  0  0  0  0
    6.5621   -5.2164    0.0000 C   0  0  0  0  0  0  0  0  0  0  0  0
    6.4650   -0.2081    0.0000 O   0  0  0  0  0  0  0  0  0  0  0  0
    6.8361   -0.9261    0.0000 C   0  0  0  0  0  0  0  0  0  0  0  0
    4.0719   -5.0777    0.0000 N   0  0  0  0  0  0  0  0  0  0  0  0
    6.1875   -4.4950    0.0000 N   0  0  0  0  0  0  0  0  0  0  0  0
    6.3748   -1.6371    0.0000 N   0  0  0  0  0  0  0  0  0  0  0  0
    5.4523   -3.0106    0.0000 N   0  0  0  0  0  0  0  0  0  0  0  0
  1  7  2  0  0  0  0
  8  9  1  0  0  0  0
 10 11  1  0  0  0  0
  2 12  1  0  0  0  0
  3 13  1  0  0  0  0
 12 14  2  0  0  0  0
 14 15  1  0  0  0  0
 15 16  2  0  0  0  0
 16 17  1  0  0  0  0
  5 17  1  0  0  0  0
 12 18  1  0  0  0  0
 17 18  2  0  0  0  0
 19 20  1  0  0  0  0
 13 20  2  0  0  0  0
 13 21  1  0  0  0  0
 18 21  1  0  0  0  0
 19 22  1  0  0  0  0
 21 23  2  0  0  0  0
 23 24  1  0  0  0  0
 19 24  2  0  0  0  0
 22 25  2  0  0  0  0
  4 26  2  0  0  0  0
 25 27  1  0  0  0  0
  6 28  1  0  0  0  0
  7 30  1  0  0  0  0
 29 30  2  0  0  0  0
 24 31  1  0  0  0  0
 27 31  2  0  0  0  0
 25 32  1  0  0  0  0
 26 32  1  0  0  0  0
 28 32  1  0  0  0  0
  8 33  1  0  0  0  0
 10 33  1  0  0  0  0
 30 33  1  0  0  0  0
  9 34  1  0  0  0  0
 11 34  1  0  0  0  0
 22 34  1  0  0  0  0
M  END
> <ID>
SCHEMBL21136942

> <InChIKey>
ROUVDTOWRFQPAH-UHFFFAOYSA-N

> <MW>
482.94

> <Series_Name>
Series_17

$$$$
SCHEMBL21136986
  Mrv1719007171905112D 0   0.00000     0.00000     0

 31 36  0  0  0  0              1 V2000 
    3.3183    1.0251    0.0000 O   0  0  0  0  0  0  0  0  0  0  0  0
    0.0000    0.0068    0.0000 N   0  0  0  0  0  0  0  0  0  0  0  0
    4.1545    0.9982    0.0000 C   0  0  2  0  0  0  0  0  0  0  0  0
    8.3001    2.7832    0.0000 C   0  0  0  0  0  0  0  0  0  0  0  0
    7.5942    3.1969    0.0000 C   0  0  0  0  0  0  0  0  0  0  0  0
    6.9736    2.8326    0.0000 C   0  0  0  0  0  0  0  0  0  0  0  0
    6.8793    1.8569    0.0000 C   0  0  0  0  0  0  0  0  0  0  0  0
    9.6984    2.7787    0.0000 C   0  0  0  0  0  0  0  0  0  0  0  0
    8.9969    3.1969    0.0000 C   0  0  0  0  0  0  0  0  0  0  0  0
    8.3001    1.8569    0.0000 C   0  0  0  0  0  0  0  0  0  0  0  0
    5.4427    1.6996    0.0000 C   0  0  0  0  0  0  0  0  0  0  0  0
    5.0583    2.4819    0.0000 C   0  0  0  0  0  0  0  0  0  0  0  0
    4.4243    2.5359    0.0000 C   0  0  0  0  0  0  0  0  0  0  0  0
    3.8219    1.8075    0.0000 C   0  0  0  0  0  0  0  0  0  0  0  0
    2.9945    1.9829    0.0000 C   0  0  0  0  0  0  0  0  0  0  0  0
    2.3740    1.4478    0.0000 C   0  0  0  0  0  0  0  0  0  0  0  0
    1.6996    1.8750    0.0000 C   0  0  0  0  0  0  0  0  0  0  0  0
    0.9712    1.4433    0.0000 C   0  0  0  0  0  0  0  0  0  0  0  0
    0.9487    0.5351    0.0000 C   0  0  0  0  0  0  0  0  0  0  0  0
    6.2049    1.4208    0.0000 C   0  0  0  0  0  0  0  0  0  0  0  0
    8.9565    1.4298    0.0000 C   0  0  0  0  0  0  0  0  0  0  0  0
    7.5672    1.4298    0.0000 C   0  0  0  0  0  0  0  0  0  0  0  0
    4.9684    0.9397    0.0000 C   0  0  0  0  0  0  0  0  0  0  0  0
    2.3650    0.5215    0.0000 C   0  0  0  0  0  0  0  0  0  0  0  0
    6.1914    0.5126    0.0000 C   0  0  0  0  0  0  0  0  0  0  0  0
    5.4360    0.2428    0.0000 C   0  0  0  0  0  0  0  0  0  0  0  0
    3.7903    0.1618    0.0000 C   0  0  0  0  0  0  0  0  0  0  0  0
    2.9945    0.0000    0.0000 C   0  0  0  0  0  0  0  0  0  0  0  0
    1.6591    0.0944    0.0000 C   0  0  0  0  0  0  0  0  0  0  0  0
    9.7119    1.8412    0.0000 N   0  0  0  0  0  0  0  0  0  0  0  0
    5.9106    2.2200    0.0000 C   0  0  0  0  0  0  0  0  0  0  0  0
  4  5  1  0  0  0  0
  5  6  2  0  0  0  0
  6  7  1  0  0  0  0
  8  9  2  0  0  0  0
  4  9  1  0  0  0  0
  4 10  2  0  0  0  0
 11 12  1  0  0  0  0
 12 13  1  0  0  0  0
 13 14  2  0  0  0  0
  3 14  1  0  0  0  0
 14 15  1  0  0  0  0
 15 16  2  0  0  0  0
 16 17  1  0  0  0  0
 17 18  1  0  0  0  0
 18 19  1  0  0  0  0
  2 19  1  0  0  0  0
  7 20  1  0  0  0  0
 11 20  1  0  0  0  0
 10 21  1  0  0  0  0
 10 22  1  0  0  0  0
  7 22  2  0  0  0  0
 11 23  1  0  0  0  0
  3 23  1  0  0  0  0
 16 24  1  0  0  0  0
 20 25  1  0  0  0  0
 25 26  1  0  0  0  0
 23 26  1  0  0  0  0
  3 27  1  0  0  0  0
 27 28  1  0  0  0  0
 24 28  1  0  0  0  0
 19 29  1  0  0  0  0
 24 29  1  0  0  0  0
  8 30  1  0  0  0  0
 21 30  2  0  0  0  0
  3  1  1  6  0  0  0
 11 31  1  0  0  0  0
M  END
> <ID>
SCHEMBL21136986

> <InChIKey>
RLFLEYYRMIHPLK-TXDUEXNESA-N

> <MW>
414.593

> <Series_Name>
Series_16

$$$$
SCHEMBL21136987
  Mrv1719007171905112D 0   0.00000     0.00000     0

 31 37  0  0  1  0              1 V2000 
    0.2291   -5.9859    0.0000 O   0  0  0  0  0  0  0  0  0  0  0  0
    0.9229   -5.4642    0.0000 C   0  0  0  0  0  0  0  0  0  0  0  0
    2.3351   -4.7084    0.0000 C   0  0  0  0  0  0  0  0  0  0  0  0
    2.9407   -4.2013    0.0000 C   0  0  0  0  0  0  0  0  0  0  0  0
    3.7478   -4.3720    0.0000 C   0  0  0  0  0  0  0  0  0  0  0  0
    4.2126   -3.6839    0.0000 C   0  0  0  0  0  0  0  0  0  0  0  0
    5.0142   -3.7461    0.0000 C   0  0  0  0  0  0  0  0  0  0  0  0
    5.9645   -3.8307    0.0000 C   0  0  0  0  0  0  0  0  0  0  0  0
    5.3805   -4.4557    0.0000 C   0  0  0  0  0  0  0  0  0  0  0  0
    6.1432   -4.7286    0.0000 C   0  0  0  0  0  0  0  0  0  0  0  0
    6.8353   -3.4836    0.0000 C   0  0  0  0  0  0  0  0  0  0  0  0
    6.8216   -4.3341    0.0000 C   0  0  0  0  0  0  0  0  0  0  0  0
    7.5683   -3.0742    0.0000 C   0  0  0  0  0  0  0  0  0  0  0  0
    8.9360   -3.0565    0.0000 C   0  0  0  0  0  0  0  0  0  0  0  0
    8.2245   -3.4692    0.0000 C   0  0  0  0  0  0  0  0  0  0  0  0
    9.6283   -3.4805    0.0000 C   0  0  0  0  0  0  0  0  0  0  0  0
    9.6090   -4.3248    0.0000 N   0  0  0  0  0  0  0  0  0  0  0  0
    8.2290   -4.3318    0.0000 C   0  0  0  0  0  0  0  0  0  0  0  0
    8.9824   -4.7186    0.0000 C   0  0  0  0  0  0  0  0  0  0  0  0
    7.4984   -4.7201    0.0000 C   0  0  0  0  0  0  0  0  0  0  0  0
    6.1345   -5.5596    0.0000 C   0  0  0  0  0  0  0  0  0  0  0  0
    5.3510   -5.8341    0.0000 C   0  0  0  0  0  0  0  0  0  0  0  0
    4.9357   -5.1900    0.0000 C   0  0  0  0  0  0  0  0  0  0  0  0
    4.0885   -5.0939    0.0000 C   0  0  1  0  0  0  0  0  0  0  0  0
    3.7472   -5.8751    0.0000 C   0  0  0  0  0  0  0  0  0  0  0  0
    2.9650   -6.0636    0.0000 C   0  0  0  0  0  0  0  0  0  0  0  0
    2.4126   -5.6036    0.0000 C   0  0  1  0  0  0  0  0  0  0  0  0
    1.6234   -4.2912    0.0000 C   0  0  0  0  0  0  0  0  0  0  0  0
    0.9418   -4.7035    0.0000 C   0  0  0  0  0  0  0  0  0  0  0  0
    1.6231   -5.9605    0.0000 C   0  0  0  0  0  0  0  0  0  0  0  0
    3.1075   -5.0837    0.0000 O   0  0  0  0  0  0  0  0  0  0  0  0
  1  2  2  0  0  0  0
  2 29  1  0  0  0  0
  2 30  1  0  0  0  0
  3  4  2  0  0  0  0
  4  5  1  0  0  0  0
  5  6  2  0  0  0  0
  6  7  1  0  0  0  0
  8  9  1  0  0  0  0
  9 10  1  0  0  0  0
  9  7  1  0  0  0  0
 10 12  1  0  0  0  0
 10 21  1  0  0  0  0
 11 12  1  0  0  0  0
 11 13  2  0  0  0  0
 12 20  2  0  0  0  0
 13 15  1  0  0  0  0
 14 15  1  0  0  0  0
 14 16  2  0  0  0  0
 15 18  2  0  0  0  0
 17 16  1  0  0  0  0
 18 19  1  0  0  0  0
 18 20  1  0  0  0  0
 19 17  2  0  0  0  0
 21 22  1  0  0  0  0
 24 23  1  0  0  0  0
 23 22  1  0  0  0  0
 23  9  1  0  0  0  0
 24 25  1  0  0  0  0
 24  5  1  0  0  0  0
 24 31  1  6  0  0  0
 25 26  1  0  0  0  0
 27  3  1  0  0  0  0
 27 26  1  0  0  0  0
 27 31  1  6  0  0  0
 28  3  1  0  0  0  0
 28 29  1  0  0  0  0
 27 30  1  0  0  0  0
M  END
> <ID>
SCHEMBL21136987

> <InChIKey>
QUCYBEBVPHDCOR-UUZAFBSHSA-N

> <MW>
411.545

> <Series_Name>
Series_16

$$$$
SCHEMBL21136993
  Mrv1719007171905132D 0   0.00000     0.00000     0

 32 38  0  0  1  0              1 V2000 
    2.3576   -2.6745    0.0000 C   0  0  1  0  0  0  0  0  0  0  0  0
    1.6232   -3.0769    0.0000 C   0  0  0  0  0  0  0  0  0  0  0  0
    0.2238   -3.0850    0.0000 O   0  0  0  0  0  0  0  0  0  0  0  0
    0.9479   -2.6580    0.0000 C   0  0  0  0  0  0  0  0  0  0  0  0
    2.3582   -1.8066    0.0000 C   0  0  0  0  0  0  0  0  0  0  0  0
    2.9839   -1.2786    0.0000 C   0  0  0  0  0  0  0  0  0  0  0  0
    3.7865   -1.4617    0.0000 C   0  0  0  0  0  0  0  0  0  0  0  0
    4.3301   -0.8729    0.0000 C   0  0  0  0  0  0  0  0  0  0  0  0
    5.0848   -0.8445    0.0000 C   0  0  0  0  0  0  0  0  0  0  0  0
    6.0741   -0.9192    0.0000 C   0  0  0  0  0  0  0  0  0  0  0  0
    5.4560   -1.5812    0.0000 C   0  0  0  0  0  0  0  0  0  0  0  0
    6.9187   -0.5749    0.0000 C   0  0  0  0  0  0  0  0  0  0  0  0
    7.6247   -0.1336    0.0000 C   0  0  0  0  0  0  0  0  0  0  0  0
    8.3149   -0.5617    0.0000 C   0  0  0  0  0  0  0  0  0  0  0  0
    9.0456   -0.1323    0.0000 C   0  0  0  0  0  0  0  0  0  0  0  0
    9.7665   -1.4066    0.0000 N   0  0  0  0  0  0  0  0  0  0  0  0
    9.7589   -0.6283    0.0000 C   0  0  0  0  0  0  0  0  0  0  0  0
    9.0501   -1.8357    0.0000 C   0  0  0  0  0  0  0  0  0  0  0  0
    8.2971   -1.4364    0.0000 C   0  0  0  0  0  0  0  0  0  0  0  0
    6.9166   -1.4374    0.0000 C   0  0  0  0  0  0  0  0  0  0  0  0
    7.6135   -1.8323    0.0000 C   0  0  0  0  0  0  0  0  0  0  0  0
    6.1982   -1.8476    0.0000 C   0  0  0  0  0  0  0  0  0  0  0  0
    6.1887   -2.6857    0.0000 C   0  0  0  0  0  0  0  0  0  0  0  0
    5.4262   -2.9563    0.0000 C   0  0  0  0  0  0  0  0  0  0  0  0
    4.9709   -2.2930    0.0000 C   0  0  1  0  0  0  0  0  0  0  0  0
    3.7896   -2.9888    0.0000 C   0  0  0  0  0  0  0  0  0  0  0  0
    3.9801   -2.2237    0.0000 C   0  0  1  0  0  0  0  0  0  0  0  0
    2.9797   -3.1699    0.0000 C   0  0  0  0  0  0  0  0  0  0  0  0
    1.6350   -1.3540    0.0000 C   0  0  0  0  0  0  0  0  0  0  0  0
    0.9367   -1.8384    0.0000 C   0  0  0  0  0  0  0  0  0  0  0  0
    4.1857   -1.1236    0.0000 C   0  0  0  0  0  0  0  0  0  0  0  0
    3.1330   -2.2059    0.0000 O   0  0  0  0  0  0  0  0  0  0  0  0
  1  2  1  0  0  0  0
  1 28  1  0  0  0  0
  1 32  1  6  0  0  0
  1  5  1  0  0  0  0
  3  4  2  0  0  0  0
  4 30  1  0  0  0  0
  4  2  1  0  0  0  0
  5  6  2  0  0  0  0
  6  7  1  0  0  0  0
  7  8  2  0  0  0  0
  8  9  1  0  0  0  0
  8 31  1  0  0  0  0
 10 11  1  0  0  0  0
 11  9  1  0  0  0  0
 12 13  2  0  0  0  0
 12 20  1  0  0  0  0
 14 15  1  0  0  0  0
 14 13  1  0  0  0  0
 15 17  2  0  0  0  0
 16 17  1  0  0  0  0
 18 19  1  0  0  0  0
 18 16  2  0  0  0  0
 19 14  2  0  0  0  0
 20 21  2  0  0  0  0
 21 19  1  0  0  0  0
 22 20  1  0  0  0  0
 22 11  1  0  0  0  0
 23 24  1  0  0  0  0
 23 22  1  0  0  0  0
 25 24  1  1  0  0  0
 25 11  1  0  0  0  0
 27 26  1  0  0  0  0
 27  7  1  0  0  0  0
 25 27  1  0  0  0  0
 27 32  1  6  0  0  0
 28 26  1  0  0  0  0
 29  5  1  0  0  0  0
 29 30  1  0  0  0  0
M  END
> <ID>
SCHEMBL21136993

> <InChIKey>
DRZDRPYWZQHADK-SUJKAFLJSA-N

> <MW>
425.572

> <Series_Name>
Series_16

$$$$
SCHEMBL21136996
  Mrv1719007171905132D 0   0.00000     0.00000     0

 36 42  0  0  1  0              1 V2000 
    3.0158   -3.0472    0.0000 N   0  0  0  0  0  0  0  0  0  0  0  0
    3.0158   -3.8953    0.0000 C   0  0  0  0  0  0  0  0  0  0  0  0
    5.1195   -2.6344    0.0000 C   0  0  1  0  0  0  0  0  0  0  0  0
    4.4312   -3.0296    0.0000 C   0  0  0  0  0  0  0  0  0  0  0  0
    3.6885   -2.6232    0.0000 C   0  0  0  0  0  0  0  0  0  0  0  0
    3.7179   -1.7734    0.0000 C   0  0  0  0  0  0  0  0  0  0  0  0
    5.1294   -1.7758    0.0000 C   0  0  0  0  0  0  0  0  0  0  0  0
    5.7538   -1.2439    0.0000 C   0  0  0  0  0  0  0  0  0  0  0  0
    6.5649   -1.4174    0.0000 C   0  0  0  0  0  0  0  0  0  0  0  0
    7.0107   -0.7430    0.0000 C   0  0  0  0  0  0  0  0  0  0  0  0
    7.8123   -0.7854    0.0000 C   0  0  0  0  0  0  0  0  0  0  0  0
    8.1903   -1.5555    0.0000 C   0  0  0  0  0  0  0  0  0  0  0  0
    8.8510   -0.8717    0.0000 C   0  0  0  0  0  0  0  0  0  0  0  0
    8.9772   -1.8150    0.0000 C   0  0  0  0  0  0  0  0  0  0  0  0
    9.6515   -1.3900    0.0000 C   0  0  0  0  0  0  0  0  0  0  0  0
    9.6709   -0.5416    0.0000 C   0  0  0  0  0  0  0  0  0  0  0  0
   10.3712   -0.1356    0.0000 C   0  0  0  0  0  0  0  0  0  0  0  0
   11.8425   -0.1296    0.0000 C   0  0  0  0  0  0  0  0  0  0  0  0
   11.0939   -0.5189    0.0000 C   0  0  0  0  0  0  0  0  0  0  0  0
   12.4929   -0.5148    0.0000 C   0  0  0  0  0  0  0  0  0  0  0  0
   12.5186   -1.3665    0.0000 N   0  0  0  0  0  0  0  0  0  0  0  0
   11.7922   -1.8024    0.0000 C   0  0  0  0  0  0  0  0  0  0  0  0
   11.0955   -1.3798    0.0000 C   0  0  0  0  0  0  0  0  0  0  0  0
   10.3431   -1.7921    0.0000 C   0  0  0  0  0  0  0  0  0  0  0  0
    8.9586   -2.6532    0.0000 C   0  0  0  0  0  0  0  0  0  0  0  0
    7.7334   -2.2435    0.0000 C   0  0  0  0  0  0  0  0  0  0  0  0
    6.7651   -2.1695    0.0000 C   0  0  1  0  0  0  0  0  0  0  0  0
    6.5577   -2.9797    0.0000 C   0  0  0  0  0  0  0  0  0  0  0  0
    5.7567   -3.1490    0.0000 C   0  0  0  0  0  0  0  0  0  0  0  0
    4.4328   -1.3623    0.0000 C   0  0  0  0  0  0  0  0  0  0  0  0
    8.1934   -2.9284    0.0000 C   0  0  0  0  0  0  0  0  0  0  0  0
    1.0969   -2.8349    0.0000 O   0  0  0  0  0  0  0  0  0  0  0  0
    1.0203   -2.2885    0.0000 C   0  0  0  0  0  0  0  0  0  0  0  0
    1.6084   -3.0418    0.0000 C   0  0  0  0  0  0  0  0  0  0  0  0
    2.3325   -2.6274    0.0000 C   0  0  0  0  0  0  0  0  0  0  0  0
    5.9059   -2.1519    0.0000 O   0  0  0  0  0  0  0  0  0  0  0  0
  1  2  1  0  0  0  0
  1  5  1  0  0  0  0
  3  4  1  0  0  0  0
  3  7  1  0  0  0  0
  3 36  1  6  0  0  0
  5  6  1  0  0  0  0
  5  4  1  0  0  0  0
  7  8  2  0  0  0  0
  8  9  1  0  0  0  0
  9 10  2  0  0  0  0
 10 11  1  0  0  0  0
 11 12  1  0  0  0  0
 13 12  1  0  0  0  0
 14 15  1  0  0  0  0
 14 25  1  0  0  0  0
 14 12  1  0  0  0  0
 15 24  2  0  0  0  0
 16 17  2  0  0  0  0
 16 15  1  0  0  0  0
 17 19  1  0  0  0  0
 18 19  1  0  0  0  0
 18 20  2  0  0  0  0
 19 23  2  0  0  0  0
 21 20  1  0  0  0  0
 22 21  2  0  0  0  0
 23 22  1  0  0  0  0
 24 23  1  0  0  0  0
 27 26  1  0  0  0  0
 26 31  1  0  0  0  0
 26 12  1  0  0  0  0
 27 28  1  0  0  0  0
 27  9  1  0  0  0  0
 27 36  1  6  0  0  0
 28 29  1  0  0  0  0
  3 29  1  0  0  0  0
 30  7  1  0  0  0  0
 30  6  1  0  0  0  0
 31 25  1  0  0  0  0
 32 33  1  0  0  0  0
 32 34  1  0  0  0  0
 34 35  1  0  0  0  0
 35  1  1  0  0  0  0
M  END
> <ID>
SCHEMBL21136996

> <InChIKey>
WFCDPPJZHTXBSA-KUPJPSJBSA-N

> <MW>
484.684

> <Series_Name>
Series_16

$$$$
SCHEMBL21136999
  Mrv1719007171905142D 0   0.00000     0.00000     0

 35 41  0  0  1  0              1 V2000 
   16.9619   -3.1784    0.0000 N   0  0  0  0  0  0  0  0  0  0  0  0
   17.1216   -4.0408    0.0000 C   0  0  0  0  0  0  0  0  0  0  0  0
   17.6321   -2.7446    0.0000 C   0  0  0  0  0  0  0  0  0  0  0  0
   17.6435   -1.8845    0.0000 C   0  0  0  0  0  0  0  0  0  0  0  0
   18.3434   -1.4478    0.0000 C   0  0  0  0  0  0  0  0  0  0  0  0
   18.9983   -1.8665    0.0000 C   0  0  0  0  0  0  0  0  0  0  0  0
   19.6212   -1.3070    0.0000 C   0  0  0  0  0  0  0  0  0  0  0  0
   20.4145   -1.4869    0.0000 C   0  0  0  0  0  0  0  0  0  0  0  0
   20.8404   -0.7944    0.0000 C   0  0  0  0  0  0  0  0  0  0  0  0
   21.6743   -0.8857    0.0000 C   0  0  0  0  0  0  0  0  0  0  0  0
   21.9911   -1.6091    0.0000 C   0  0  0  0  0  0  0  0  0  0  0  0
   22.4561   -0.9104    0.0000 C   0  0  0  0  0  0  0  0  0  0  0  0
   22.7325   -1.8898    0.0000 C   0  0  1  0  0  0  0  0  0  0  0  0
   23.4062   -1.4554    0.0000 C   0  0  0  0  0  0  0  0  0  0  0  0
   23.4135   -0.5710    0.0000 C   0  0  0  0  0  0  0  0  0  0  0  0
   24.1252   -0.1361    0.0000 C   0  0  0  0  0  0  0  0  0  0  0  0
   26.1775   -1.4215    0.0000 N   0  0  0  0  0  0  0  0  0  0  0  0
   26.1365   -0.5538    0.0000 C   0  0  0  0  0  0  0  0  0  0  0  0
   25.4794   -0.1346    0.0000 C   0  0  0  0  0  0  0  0  0  0  0  0
   24.7124   -0.6112    0.0000 C   0  0  0  0  0  0  0  0  0  0  0  0
   25.4687   -1.8949    0.0000 C   0  0  0  0  0  0  0  0  0  0  0  0
   24.7996   -1.4502    0.0000 C   0  0  0  0  0  0  0  0  0  0  0  0
   24.0951   -1.8785    0.0000 C   0  0  0  0  0  0  0  0  0  0  0  0
   21.9759   -3.0543    0.0000 C   0  0  0  0  0  0  0  0  0  0  0  0
   21.5188   -2.3496    0.0000 C   0  0  1  0  0  0  0  0  0  0  0  0
   20.3844   -3.0905    0.0000 C   0  0  0  0  0  0  0  0  0  0  0  0
   19.5805   -3.2439    0.0000 C   0  0  0  0  0  0  0  0  0  0  0  0
   20.7246   -2.2905    0.0000 C   0  0  1  0  0  0  0  0  0  0  0  0
   18.9838   -2.7386    0.0000 C   0  0  1  0  0  0  0  0  0  0  0  0
   18.3035   -3.1457    0.0000 C   0  0  0  0  0  0  0  0  0  0  0  0
   22.7257   -2.7488    0.0000 C   0  0  0  0  0  0  0  0  0  0  0  0
   16.4269   -1.8607    0.0000 C   0  0  0  0  0  0  0  0  0  0  0  0
   16.2630   -2.7433    0.0000 C   0  0  0  0  0  0  0  0  0  0  0  0
   15.2530   -3.1624    0.0000 C   0  0  0  0  0  0  0  0  0  0  0  0
   19.7889   -2.2201    0.0000 O   0  0  0  0  0  0  0  0  0  0  0  0
  1  2  1  0  0  0  0
  1  3  1  0  0  0  0
  3 30  1  0  0  0  0
  4  5  1  0  0  0  0
  4  3  1  0  0  0  0
  5  6  1  0  0  0  0
  6  7  2  0  0  0  0
  7  8  1  0  0  0  0
  8  9  2  0  0  0  0
  9 10  1  0  0  0  0
 10 11  1  0  0  0  0
 25 11  1  0  0  0  0
 12 11  1  0  0  0  0
 13 11  1  0  0  0  0
 13 14  1  1  0  0  0
 14 23  2  0  0  0  0
 15 16  2  0  0  0  0
 15 14  1  0  0  0  0
 16 20  1  0  0  0  0
 17 18  1  0  0  0  0
 19 18  2  0  0  0  0
 19 20  1  0  0  0  0
 20 22  2  0  0  0  0
 21 17  2  0  0  0  0
 22 21  1  0  0  0  0
 23 22  1  0  0  0  0
 25 24  1  1  0  0  0
 25 28  1  0  0  0  0
 26 27  1  0  0  0  0
 28 26  1  0  0  0  0
 28  8  1  0  0  0  0
 28 35  1  6  0  0  0
 29  6  1  0  0  0  0
 29 27  1  0  0  0  0
 29 35  1  6  0  0  0
 29 30  1  0  0  0  0
 31 24  1  0  0  0  0
 13 31  1  0  0  0  0
 32 33  1  0  0  0  0
 33  1  1  0  0  0  0
 33 34  1  0  0  0  0
M  END
> <ID>
SCHEMBL21136999

> <InChIKey>
YCOOCKGEBFICNI-FLNOTNEWSA-N

> <MW>
468.685

> <Series_Name>
Series_16

$$$$
SCHEMBL21137001
  Mrv1719007171905152D 0   0.00000     0.00000     0

 30 35  0  0  0  0              1 V2000 
    4.2791    1.5978    0.0000 O   0  0  0  0  0  0  0  0  0  0  0  0
    5.3974    1.6215    0.0000 C   0  0  1  0  0  0  0  0  0  0  0  0
    9.6570    3.2680    0.0000 C   0  0  0  0  0  0  0  0  0  0  0  0
    8.9364    3.6578    0.0000 C   0  0  0  0  0  0  0  0  0  0  0  0
    8.2428    3.3043    0.0000 C   0  0  0  0  0  0  0  0  0  0  0  0
    8.1658    2.4295    0.0000 C   0  0  0  0  0  0  0  0  0  0  0  0
   11.0848    3.2500    0.0000 C   0  0  0  0  0  0  0  0  0  0  0  0
   10.3641    3.6578    0.0000 C   0  0  0  0  0  0  0  0  0  0  0  0
    9.6480    2.4431    0.0000 C   0  0  0  0  0  0  0  0  0  0  0  0
    6.7131    2.2777    0.0000 C   0  0  0  0  0  0  0  0  0  0  0  0
    6.3391    2.9915    0.0000 C   0  0  0  0  0  0  0  0  0  0  0  0
    5.5097    3.0595    0.0000 C   0  0  0  0  0  0  0  0  0  0  0  0
    5.0110    2.3796    0.0000 C   0  0  0  0  0  0  0  0  0  0  0  0
    4.2314    2.5565    0.0000 C   0  0  0  0  0  0  0  0  0  0  0  0
    3.5651    2.0442    0.0000 C   0  0  0  0  0  0  0  0  0  0  0  0
    2.8172    2.4477    0.0000 C   0  0  0  0  0  0  0  0  0  0  0  0
    2.1374    2.0261    0.0000 C   0  0  0  0  0  0  0  0  0  0  0  0
    2.1374    1.2238    0.0000 C   0  0  0  0  0  0  0  0  0  0  0  0
    2.7764    0.8294    0.0000 C   0  0  0  0  0  0  0  0  0  0  0  0
   10.3369    2.0261    0.0000 C   0  0  0  0  0  0  0  0  0  0  0  0
    8.9091    2.0261    0.0000 C   0  0  0  0  0  0  0  0  0  0  0  0
    7.4950    2.0170    0.0000 C   0  0  0  0  0  0  0  0  0  0  0  0
    7.3726    1.1422    0.0000 C   0  0  0  0  0  0  0  0  0  0  0  0
    6.6791    0.9246    0.0000 C   0  0  0  0  0  0  0  0  0  0  0  0
    4.9930    0.8703    0.0000 C   0  0  0  0  0  0  0  0  0  0  0  0
    4.2586    0.6935    0.0000 C   0  0  0  0  0  0  0  0  0  0  0  0
    6.2258    1.4958    0.0000 C   0  0  0  0  0  0  0  0  0  0  0  0
    3.6512    1.2677    0.0000 C   0  0  0  0  0  0  0  0  0  0  0  0
   11.0780    2.4000    0.0000 N   0  0  0  0  0  0  0  0  0  0  0  0
    7.1225    2.7588    0.0000 C   0  0  0  0  0  0  0  0  0  0  0  0
  3  4  1  0  0  0  0
  4  5  2  0  0  0  0
  5  6  1  0  0  0  0
  7  8  2  0  0  0  0
  3  8  1  0  0  0  0
  3  9  2  0  0  0  0
 10 11  1  0  0  0  0
 11 12  1  0  0  0  0
 12 13  2  0  0  0  0
  2 13  1  0  0  0  0
 13 14  1  0  0  0  0
 14 15  2  0  0  0  0
 15 16  1  0  0  0  0
 16 17  1  0  0  0  0
 17 18  1  0  0  0  0
 18 19  1  0  0  0  0
  9 20  1  0  0  0  0
  9 21  1  0  0  0  0
  6 21  2  0  0  0  0
  6 22  1  0  0  0  0
 10 22  1  0  0  0  0
 22 23  1  0  0  0  0
 23 24  1  0  0  0  0
  2 25  1  0  0  0  0
 25 26  1  0  0  0  0
 10 27  1  0  0  0  0
  2 27  1  0  0  0  0
 24 27  1  0  0  0  0
 19 28  1  0  0  0  0
 15 28  1  0  0  0  0
 26 28  1  0  0  0  0
  7 29  1  0  0  0  0
 20 29  2  0  0  0  0
  2  1  1  6  0  0  0
 10 30  1  0  0  0  0
M  END
> <ID>
SCHEMBL21137001

> <InChIKey>
JTCXQMUWYVARDM-NWSVKKAZSA-N

> <MW>
399.578

> <Series_Name>
Series_16

$$$$
SCHEMBL21137002
  Mrv1719007171905152D 0   0.00000     0.00000     0

 36 42  0  0  1  0              1 V2000 
    0.8724   -3.1024    0.0000 C   0  0  0  0  0  0  0  0  0  0  0  0
    0.1701   -2.6827    0.0000 F   0  0  0  0  0  0  0  0  0  0  0  0
    1.5696   -2.6849    0.0000 C   0  0  0  0  0  0  0  0  0  0  0  0
    2.2378   -3.1146    0.0000 N   0  0  0  0  0  0  0  0  0  0  0  0
    0.8637   -3.9913    0.0000 F   0  0  0  0  0  0  0  0  0  0  0  0
    2.3948   -4.0109    0.0000 C   0  0  0  0  0  0  0  0  0  0  0  0
    4.3465   -2.6716    0.0000 C   0  0  1  0  0  0  0  0  0  0  0  0
    3.6319   -3.0969    0.0000 C   0  0  0  0  0  0  0  0  0  0  0  0
    2.9610   -2.6925    0.0000 C   0  0  2  0  0  0  0  0  0  0  0  0
    2.9660   -1.8109    0.0000 C   0  0  0  0  0  0  0  0  0  0  0  0
    3.6350   -1.3806    0.0000 C   0  0  0  0  0  0  0  0  0  0  0  0
    4.3509   -1.8018    0.0000 C   0  0  0  0  0  0  0  0  0  0  0  0
    4.9801   -1.2759    0.0000 C   0  0  0  0  0  0  0  0  0  0  0  0
    6.2042   -0.7564    0.0000 C   0  0  0  0  0  0  0  0  0  0  0  0
    7.0218   -0.8156    0.0000 C   0  0  0  0  0  0  0  0  0  0  0  0
    7.3881   -1.5548    0.0000 C   0  0  0  0  0  0  0  0  0  0  0  0
    7.9434   -0.9161    0.0000 C   0  0  0  0  0  0  0  0  0  0  0  0
    8.1168   -1.8190    0.0000 C   0  0  0  0  0  0  0  0  0  0  0  0
    8.8157   -0.5338    0.0000 C   0  0  0  0  0  0  0  0  0  0  0  0
    8.8206   -1.3988    0.0000 C   0  0  0  0  0  0  0  0  0  0  0  0
    9.5156   -0.1030    0.0000 C   0  0  0  0  0  0  0  0  0  0  0  0
   10.2020   -0.5230    0.0000 C   0  0  0  0  0  0  0  0  0  0  0  0
   10.8811   -0.1080    0.0000 C   0  0  0  0  0  0  0  0  0  0  0  0
   11.6041   -0.5389    0.0000 C   0  0  0  0  0  0  0  0  0  0  0  0
   11.5683   -1.4002    0.0000 N   0  0  0  0  0  0  0  0  0  0  0  0
   10.2013   -1.3891    0.0000 C   0  0  0  0  0  0  0  0  0  0  0  0
   10.8708   -1.8177    0.0000 C   0  0  0  0  0  0  0  0  0  0  0  0
    9.4810   -1.8046    0.0000 C   0  0  0  0  0  0  0  0  0  0  0  0
    8.1143   -2.6996    0.0000 C   0  0  0  0  0  0  0  0  0  0  0  0
    7.3598   -2.9813    0.0000 C   0  0  0  0  0  0  0  0  0  0  0  0
    6.0970   -2.2351    0.0000 C   0  0  1  0  0  0  0  0  0  0  0  0
    5.7409   -3.0255    0.0000 C   0  0  0  0  0  0  0  0  0  0  0  0
    4.9794   -3.2136    0.0000 C   0  0  0  0  0  0  0  0  0  0  0  0
    5.7602   -1.4665    0.0000 C   0  0  0  0  0  0  0  0  0  0  0  0
    6.9218   -2.2987    0.0000 C   0  0  1  0  0  0  0  0  0  0  0  0
    5.1036   -2.1985    0.0000 O   0  0  0  0  0  0  0  0  0  0  0  0
  1  2  1  0  0  0  0
  3  4  1  0  0  0  0
  3  1  1  0  0  0  0
  4  6  1  0  0  0  0
  5  1  1  0  0  0  0
  7  8  1  0  0  0  0
  7 12  1  0  0  0  0
  7 36  1  6  0  0  0
  9  4  1  1  0  0  0
  9  8  1  0  0  0  0
 10 11  1  0  0  0  0
  9 10  1  0  0  0  0
 11 12  1  0  0  0  0
 12 13  2  0  0  0  0
 13 34  1  0  0  0  0
 14 15  1  0  0  0  0
 15 16  1  0  0  0  0
 16 18  1  0  0  0  0
 17 16  1  0  0  0  0
 18 20  1  0  0  0  0
 19 20  1  0  0  0  0
 19 21  2  0  0  0  0
 20 28  2  0  0  0  0
 22 21  1  0  0  0  0
 22 23  1  0  0  0  0
 23 24  2  0  0  0  0
 25 24  1  0  0  0  0
 26 22  2  0  0  0  0
 26 27  1  0  0  0  0
 27 25  2  0  0  0  0
 28 26  1  0  0  0  0
 29 30  1  0  0  0  0
 29 18  1  0  0  0  0
 31 32  1  0  0  0  0
 35 31  1  0  0  0  0
 31 36  1  6  0  0  0
 31 34  1  0  0  0  0
  7 33  1  0  0  0  0
 33 32  1  0  0  0  0
 34 14  2  0  0  0  0
 35 30  1  1  0  0  0
 35 16  1  0  0  0  0
M  END
> <ID>
SCHEMBL21137002

> <InChIKey>
VTYKUUQOPYBQCX-MKPOAULFSA-N

> <MW>
490.639

> <Series_Name>
Series_16

$$$$
SCHEMBL21137007
  Mrv1719007171905152D 0   0.00000     0.00000     0

 34 39  0  0  0  0              1 V2000 
    5.7987   -2.1617    0.0000 C   0  0  0  0  0  0  0  0  0  0  0  0
    1.0936   -2.7722    0.0000 C   0  0  0  0  0  0  0  0  0  0  0  0
    6.7969   -2.1808    0.0000 C   0  0  2  0  0  0  0  0  0  0  0  0
   10.9106   -0.4493    0.0000 C   0  0  0  0  0  0  0  0  0  0  0  0
   10.2239   -0.0509    0.0000 C   0  0  0  0  0  0  0  0  0  0  0  0
    9.5373   -0.4324    0.0000 C   0  0  0  0  0  0  0  0  0  0  0  0
    9.4864   -1.3564    0.0000 C   0  0  0  0  0  0  0  0  0  0  0  0
   12.2840   -0.4578    0.0000 C   0  0  0  0  0  0  0  0  0  0  0  0
   11.6990   -0.0763    0.0000 C   0  0  0  0  0  0  0  0  0  0  0  0
   10.9106   -1.3310    0.0000 C   0  0  0  0  0  0  0  0  0  0  0  0
    8.0558   -1.4878    0.0000 C   0  0  0  0  0  0  0  0  0  0  0  0
    7.6806   -0.7375    0.0000 C   0  0  0  0  0  0  0  0  0  0  0  0
    7.1720   -0.6867    0.0000 C   0  0  0  0  0  0  0  0  0  0  0  0
    6.4429   -1.3903    0.0000 C   0  0  0  0  0  0  0  0  0  0  0  0
    5.6206   -1.2208    0.0000 C   0  0  0  0  0  0  0  0  0  0  0  0
    5.0102   -1.7464    0.0000 C   0  0  0  0  0  0  0  0  0  0  0  0
    4.0693   -1.4497    0.0000 C   0  0  0  0  0  0  0  0  0  0  0  0
    3.6369   -1.7549    0.0000 C   0  0  0  0  0  0  0  0  0  0  0  0
    3.6369   -2.6026    0.0000 C   0  0  0  0  0  0  0  0  0  0  0  0
   10.2493   -1.7549    0.0000 C   0  0  0  0  0  0  0  0  0  0  0  0
   11.5464   -1.7549    0.0000 C   0  0  0  0  0  0  0  0  0  0  0  0
    8.8251   -1.7718    0.0000 C   0  0  0  0  0  0  0  0  0  0  0  0
    7.6128   -2.2380    0.0000 C   0  0  0  0  0  0  0  0  0  0  0  0
    5.0102   -2.6280    0.0000 C   0  0  0  0  0  0  0  0  0  0  0  0
    8.6471   -2.7213    0.0000 C   0  0  0  0  0  0  0  0  0  0  0  0
    8.0621   -2.9248    0.0000 C   0  0  0  0  0  0  0  0  0  0  0  0
    6.4853   -2.9248    0.0000 C   0  0  0  0  0  0  0  0  0  0  0  0
    5.6461   -3.1537    0.0000 C   0  0  0  0  0  0  0  0  0  0  0  0
    4.3744   -3.0265    0.0000 C   0  0  0  0  0  0  0  0  0  0  0  0
    2.3143   -2.6450    0.0000 C   0  0  0  0  0  0  0  0  0  0  0  0
    1.5769   -3.0265    0.0000 C   0  0  0  0  0  0  0  0  0  0  0  0
    2.9375   -3.0774    0.0000 C   0  0  0  0  0  0  0  0  0  0  0  0
   12.3094   -1.3733    0.0000 N   0  0  0  0  0  0  0  0  0  0  0  0
    8.5285   -0.9599    0.0000 C   0  0  0  0  0  0  0  0  0  0  0  0
  4  5  1  0  0  0  0
  5  6  2  0  0  0  0
  6  7  1  0  0  0  0
  8  9  2  0  0  0  0
  4  9  1  0  0  0  0
  4 10  2  0  0  0  0
 11 12  1  0  0  0  0
 12 13  1  0  0  0  0
 13 14  2  0  0  0  0
  3 14  1  0  0  0  0
 14 15  1  0  0  0  0
 15 16  2  0  0  0  0
 16 17  1  0  0  0  0
 17 18  1  0  0  0  0
 18 19  1  0  0  0  0
 10 20  1  0  0  0  0
  7 20  2  0  0  0  0
 10 21  1  0  0  0  0
  7 22  1  0  0  0  0
 11 22  1  0  0  0  0
 11 23  1  0  0  0  0
  3 23  1  0  0  0  0
 16 24  1  0  0  0  0
 22 25  1  0  0  0  0
 25 26  1  0  0  0  0
 23 26  1  0  0  0  0
  3 27  1  0  0  0  0
 27 28  1  0  0  0  0
 24 28  1  0  0  0  0
 24 29  1  0  0  0  0
 19 29  1  0  0  0  0
 30 31  1  0  0  0  0
  2 31  1  0  0  0  0
 19 32  1  0  0  0  0
 30 32  1  0  0  0  0
  8 33  1  0  0  0  0
 21 33  2  0  0  0  0
  3  1  1  6  0  0  0
 11 34  1  0  0  0  0
M  END
> <ID>
SCHEMBL21137007

> <InChIKey>
GXFUXJMEOCBDDU-MAVGEBQUSA-N

> <MW>
453.714

> <Series_Name>
Series_16

$$$$
SCHEMBL21137014
  Mrv1719007171905162D 0   0.00000     0.00000     0

 33 38  0  0  0  0              1 V2000 
    3.6973    1.9716    0.0000 O   0  0  0  0  0  0  0  0  0  0  0  0
    0.5839    0.4769    0.0000 C   0  0  0  0  0  0  0  0  0  0  0  0
    0.0000    1.4766    0.0000 C   0  0  0  0  0  0  0  0  0  0  0  0
    4.7484    1.9716    0.0000 C   0  0  2  0  0  0  0  0  0  0  0  0
    9.1990    3.5421    0.0000 C   0  0  0  0  0  0  0  0  0  0  0  0
    8.4741    3.9287    0.0000 C   0  0  0  0  0  0  0  0  0  0  0  0
    7.7348    3.5518    0.0000 C   0  0  0  0  0  0  0  0  0  0  0  0
    7.6913    2.7351    0.0000 C   0  0  0  0  0  0  0  0  0  0  0  0
   10.7356    3.5082    0.0000 C   0  0  0  0  0  0  0  0  0  0  0  0
    9.9673    3.9287    0.0000 C   0  0  0  0  0  0  0  0  0  0  0  0
    9.1990    2.7496    0.0000 C   0  0  0  0  0  0  0  0  0  0  0  0
    6.1473    2.6022    0.0000 C   0  0  0  0  0  0  0  0  0  0  0  0
    5.7341    3.2763    0.0000 C   0  0  0  0  0  0  0  0  0  0  0  0
    4.9803    3.3342    0.0000 C   0  0  0  0  0  0  0  0  0  0  0  0
    4.4052    2.6819    0.0000 C   0  0  0  0  0  0  0  0  0  0  0  0
    3.5307    2.8558    0.0000 C   0  0  0  0  0  0  0  0  0  0  0  0
    2.8492    2.3679    0.0000 C   0  0  0  0  0  0  0  0  0  0  0  0
    1.9650    2.7109    0.0000 C   0  0  0  0  0  0  0  0  0  0  0  0
    1.3416    2.3485    0.0000 C   0  0  0  0  0  0  0  0  0  0  0  0
    1.3416    1.5898    0.0000 C   0  0  0  0  0  0  0  0  0  0  0  0
    8.5030    2.3630    0.0000 C   0  0  0  0  0  0  0  0  0  0  0  0
    9.9238    2.3630    0.0000 C   0  0  0  0  0  0  0  0  0  0  0  0
    6.9326    2.3436    0.0000 C   0  0  0  0  0  0  0  0  0  0  0  0
    6.9374    1.5657    0.0000 C   0  0  0  0  0  0  0  0  0  0  0  0
    6.2706    1.3192    0.0000 C   0  0  0  0  0  0  0  0  0  0  0  0
    5.6520    1.9232    0.0000 C   0  0  0  0  0  0  0  0  0  0  0  0
    4.3715    1.2468    0.0000 C   0  0  0  0  0  0  0  0  0  0  0  0
    3.5452    1.0727    0.0000 C   0  0  0  0  0  0  0  0  0  0  0  0
    2.0954    1.1887    0.0000 C   0  0  0  0  0  0  0  0  0  0  0  0
    2.9363    1.6268    0.0000 C   0  0  0  0  0  0  0  0  0  0  0  0
   10.7284    2.7109    0.0000 N   0  0  0  0  0  0  0  0  0  0  0  0
    0.5806    1.1453    0.0000 N   0  0  0  0  0  0  0  0  0  0  0  0
    6.5622    3.1263    0.0000 C   0  0  0  0  0  0  0  0  0  0  0  0
  5  6  1  0  0  0  0
  6  7  2  0  0  0  0
  7  8  1  0  0  0  0
  9 10  2  0  0  0  0
  5 10  1  0  0  0  0
  5 11  2  0  0  0  0
 32  2  1  0  0  0  0
 12 13  1  0  0  0  0
 13 14  1  0  0  0  0
 14 15  2  0  0  0  0
  4 15  1  0  0  0  0
 15 16  1  0  0  0  0
 16 17  2  0  0  0  0
 17 18  1  0  0  0  0
 18 19  1  0  0  0  0
 19 20  1  0  0  0  0
 11 21  1  0  0  0  0
  8 21  2  0  0  0  0
 11 22  1  0  0  0  0
  8 23  1  0  0  0  0
 12 23  1  0  0  0  0
 23 24  1  0  0  0  0
 24 25  1  0  0  0  0
 25 26  1  0  0  0  0
  4 26  1  0  0  0  0
 12 26  1  0  0  0  0
  4 27  1  0  0  0  0
 27 28  1  0  0  0  0
 20 29  1  0  0  0  0
 17 30  1  0  0  0  0
 28 30  1  0  0  0  0
 29 30  1  0  0  0  0
  9 31  1  0  0  0  0
 22 31  2  0  0  0  0
 32  3  1  0  0  0  0
 20 32  1  0  0  0  0
  4  1  1  6  0  0  0
 12 33  1  0  0  0  0
M  END
> <ID>
SCHEMBL21137014

> <InChIKey>
DMLWMOYWQMDTRI-IHGFKOOWSA-N

> <MW>
442.647

> <Series_Name>
Series_16

$$$$
SCHEMBL21137018
  Mrv1719007171905172D 0   0.00000     0.00000     0

 30 36  0  0  1  0              1 V2000 
    4.1309   -2.5995    0.0000 C   0  0  1  0  0  0  0  0  0  0  0  0
    3.3645   -3.0136    0.0000 C   0  0  0  0  0  0  0  0  0  0  0  0
    2.7053   -2.6111    0.0000 C   0  0  0  0  0  0  0  0  0  0  0  0
    3.3841   -1.3513    0.0000 C   0  0  0  0  0  0  0  0  0  0  0  0
    4.1311   -1.7447    0.0000 C   0  0  0  0  0  0  0  0  0  0  0  0
    4.7623   -1.2403    0.0000 C   0  0  0  0  0  0  0  0  0  0  0  0
    6.8462   -0.7956    0.0000 C   0  0  0  0  0  0  0  0  0  0  0  0
    7.1765   -1.5394    0.0000 C   0  0  0  0  0  0  0  0  0  0  0  0
    7.8169   -0.8732    0.0000 C   0  0  0  0  0  0  0  0  0  0  0  0
    7.9885   -1.7754    0.0000 C   0  0  0  0  0  0  0  0  0  0  0  0
    8.6851   -0.5123    0.0000 C   0  0  0  0  0  0  0  0  0  0  0  0
    8.6689   -1.3693    0.0000 C   0  0  0  0  0  0  0  0  0  0  0  0
    9.3903   -0.1184    0.0000 C   0  0  0  0  0  0  0  0  0  0  0  0
   10.7914   -0.1187    0.0000 C   0  0  0  0  0  0  0  0  0  0  0  0
   11.5045   -0.5251    0.0000 C   0  0  0  0  0  0  0  0  0  0  0  0
   11.4898   -1.3583    0.0000 N   0  0  0  0  0  0  0  0  0  0  0  0
   10.1130   -0.5171    0.0000 C   0  0  0  0  0  0  0  0  0  0  0  0
   10.1086   -1.3669    0.0000 C   0  0  0  0  0  0  0  0  0  0  0  0
   10.7806   -1.7697    0.0000 C   0  0  0  0  0  0  0  0  0  0  0  0
    9.4149   -1.7637    0.0000 C   0  0  0  0  0  0  0  0  0  0  0  0
    7.9841   -2.6226    0.0000 C   0  0  0  0  0  0  0  0  0  0  0  0
    7.1952   -2.9052    0.0000 C   0  0  0  0  0  0  0  0  0  0  0  0
    6.7510   -2.2412    0.0000 C   0  0  1  0  0  0  0  0  0  0  0  0
    5.5426   -2.9405    0.0000 C   0  0  0  0  0  0  0  0  0  0  0  0
    4.7611   -3.1297    0.0000 C   0  0  0  0  0  0  0  0  0  0  0  0
    5.9284   -2.1782    0.0000 C   0  0  1  0  0  0  0  0  0  0  0  0
    5.5535   -1.4238    0.0000 C   0  0  0  0  0  0  0  0  0  0  0  0
    2.7084   -1.7743    0.0000 C   0  0  0  0  0  0  0  0  0  0  0  0
    6.0461   -0.7282    0.0000 C   0  0  0  0  0  0  0  0  0  0  0  0
    4.9064   -2.1344    0.0000 O   0  0  0  0  0  0  0  0  0  0  0  0
  1  2  1  0  0  0  0
  1 30  1  6  0  0  0
  1  5  1  0  0  0  0
  2  3  1  0  0  0  0
  4  5  1  0  0  0  0
  4 28  1  0  0  0  0
  5  6  2  0  0  0  0
  6 27  1  0  0  0  0
  7  8  1  0  0  0  0
  8  9  1  0  0  0  0
  8 10  1  0  0  0  0
 23  8  1  0  0  0  0
 10 12  1  0  0  0  0
 11 12  1  0  0  0  0
 11 13  2  0  0  0  0
 12 20  2  0  0  0  0
 14 15  2  0  0  0  0
 16 15  1  0  0  0  0
 17 14  1  0  0  0  0
 17 13  1  0  0  0  0
 18 17  2  0  0  0  0
 18 19  1  0  0  0  0
 19 16  2  0  0  0  0
 20 18  1  0  0  0  0
 21 22  1  0  0  0  0
 21 10  1  0  0  0  0
 23 22  1  1  0  0  0
 23 26  1  0  0  0  0
 24 25  1  0  0  0  0
  1 25  1  0  0  0  0
 26 24  1  0  0  0  0
 26 30  1  6  0  0  0
 26 27  1  0  0  0  0
 27 29  2  0  0  0  0
 28  3  1  0  0  0  0
 29  7  1  0  0  0  0
M  END
> <ID>
SCHEMBL21137018

> <InChIKey>
FSSCYKYNRUKXIK-MIPJAVKTSA-N

> <MW>
397.562

> <Series_Name>
Series_16

$$$$
SCHEMBL21137044
  Mrv1719007171905212D 0   0.00000     0.00000     0

 32 35  0  0  0  0              1 V2000 
    2.1628   -0.2149    0.0000 F   0  0  0  0  0  0  0  0  0  0  0  0
    5.7398   -0.6793    0.0000 C   0  0  0  0  0  0  0  0  0  0  0  0
    7.1610   -0.6031    0.0000 O   0  0  0  0  0  0  0  0  0  0  0  0
    2.9739   -0.6378    0.0000 Cl  0  0  0  0  0  0  0  0  0  0  0  0
    8.6098   -1.4141    0.0000 C   0  0  0  0  0  0  0  0  0  0  0  0
    0.9220   -2.7244    0.0000 O   0  0  0  0  0  0  0  0  0  0  0  0
    5.7260   -3.9513    0.0000 C   0  0  0  0  0  0  0  0  0  0  0  0
    1.4419   -0.6193    0.0000 C   0  0  0  0  0  0  0  0  0  0  0  0
    0.7071   -0.2080    0.0000 C   0  0  0  0  0  0  0  0  0  0  0  0
    0.0138   -0.6239    0.0000 C   0  0  0  0  0  0  0  0  0  0  0  0
    0.0138   -1.4419    0.0000 C   0  0  0  0  0  0  0  0  0  0  0  0
    0.7255   -1.8532    0.0000 C   0  0  0  0  0  0  0  0  0  0  0  0
    1.4465   -1.4327    0.0000 C   0  0  0  0  0  0  0  0  0  0  0  0
    5.7306   -1.4188    0.0000 C   0  0  0  0  0  0  0  0  0  0  0  0
    7.2280   -1.4419    0.0000 C   0  0  0  0  0  0  0  0  0  0  0  0
    7.8888   -1.8301    0.0000 C   0  0  0  0  0  0  0  0  0  0  0  0
    5.0882   -1.8024    0.0000 C   0  0  0  0  0  0  0  0  0  0  0  0
    2.1628   -1.8671    0.0000 C   0  0  0  0  0  0  0  0  0  0  0  0
    3.5955   -2.6805    0.0000 C   0  0  0  0  0  0  0  0  0  0  0  0
    3.5909   -1.8578    0.0000 C   0  0  0  0  0  0  0  0  0  0  0  0
    2.1767   -2.6897    0.0000 C   0  0  0  0  0  0  0  0  0  0  0  0
    2.8838   -3.1149    0.0000 C   0  0  0  0  0  0  0  0  0  0  0  0
    6.4192   -2.7036    0.0000 C   0  0  0  0  0  0  0  0  0  0  0  0
    5.7537   -3.0917    0.0000 C   0  0  0  0  0  0  0  0  0  0  0  0
    4.3164   -3.1010    0.0000 C   0  0  0  0  0  0  0  0  0  0  0  0
    4.3257   -3.9282    0.0000 C   0  0  0  0  0  0  0  0  0  0  0  0
    3.6186   -4.3534    0.0000 C   0  0  0  0  0  0  0  0  0  0  0  0
    2.9116   -1.4419    0.0000 C   0  0  0  0  0  0  0  0  0  0  0  0
    2.8907   -3.9652    0.0000 N   0  0  0  0  0  0  0  0  0  0  0  0
    6.4539   -1.8578    0.0000 N   0  0  0  0  0  0  0  0  0  0  0  0
    5.0258   -2.7036    0.0000 N   0  0  0  0  0  0  0  0  0  0  0  0
    5.0397   -4.3742    0.0000 O   0  0  0  0  0  0  0  0  0  0  0  0
  1  8  1  0  0  0  0
  8  9  1  0  0  0  0
  9 10  2  0  0  0  0
 10 11  1  0  0  0  0
 11 12  2  0  0  0  0
  6 12  1  0  0  0  0
  8 13  2  0  0  0  0
 12 13  1  0  0  0  0
  2 14  1  0  0  0  0
  3 15  2  0  0  0  0
  5 16  2  0  0  0  0
 15 16  1  0  0  0  0
 14 17  1  0  0  0  0
 13 18  1  0  0  0  0
 19 20  1  0  0  0  0
 18 21  2  0  0  0  0
 21 22  1  0  0  0  0
 19 22  2  0  0  0  0
 23 24  1  0  0  0  0
 19 25  1  0  0  0  0
 25 26  2  0  0  0  0
 26 27  1  0  0  0  0
  4 28  1  0  0  0  0
 20 28  2  0  0  0  0
 18 28  1  0  0  0  0
 22 29  1  0  0  0  0
 27 29  2  0  0  0  0
 14 30  1  0  0  0  0
 15 30  1  0  0  0  0
 23 30  1  0  0  0  0
 17 31  1  0  0  0  0
 24 31  1  0  0  0  0
 25 31  1  0  0  0  0
  7 32  1  0  0  0  0
 26 32  1  0  0  0  0
M  END
> <ID>
SCHEMBL21137044

> <InChIKey>
YKEYPHXNOBXFPH-UHFFFAOYSA-N

> <MW>
455.91

> <Series_Name>
Series_17

$$$$
SCHEMBL21137054
  Mrv1719007171905222D 0   0.00000     0.00000     0

 28 31  0  0  0  0              1 V2000 
    2.1705   -0.1998    0.0000 F   0  0  0  0  0  0  0  0  0  0  0  0
    2.9767   -0.6133    0.0000 Cl  0  0  0  0  0  0  0  0  0  0  0  0
    0.9440   -2.6804    0.0000 O   0  0  0  0  0  0  0  0  0  0  0  0
    5.7604   -3.8448    0.0000 C   0  0  0  0  0  0  0  0  0  0  0  0
    5.0576   -5.0713    0.0000 C   0  0  0  0  0  0  0  0  0  0  0  0
    1.4470   -0.5880    0.0000 C   0  0  0  0  0  0  0  0  0  0  0  0
    0.7166   -0.1929    0.0000 C   0  0  0  0  0  0  0  0  0  0  0  0
    0.0138   -0.6064    0.0000 C   0  0  0  0  0  0  0  0  0  0  0  0
    0.0276   -1.4195    0.0000 C   0  0  0  0  0  0  0  0  0  0  0  0
    0.7442   -1.8282    0.0000 C   0  0  0  0  0  0  0  0  0  0  0  0
    1.4516   -1.3965    0.0000 C   0  0  0  0  0  0  0  0  0  0  0  0
    2.8802   -1.3965    0.0000 C   0  0  0  0  0  0  0  0  0  0  0  0
    5.7053   -1.3919    0.0000 C   0  0  0  0  0  0  0  0  0  0  0  0
    5.0438   -1.7778    0.0000 C   0  0  0  0  0  0  0  0  0  0  0  0
    2.1682   -1.8145    0.0000 C   0  0  0  0  0  0  0  0  0  0  0  0
    2.1774   -2.6321    0.0000 C   0  0  0  0  0  0  0  0  0  0  0  0
    2.8940   -3.0410    0.0000 C   0  0  0  0  0  0  0  0  0  0  0  0
    3.5968   -1.8053    0.0000 C   0  0  0  0  0  0  0  0  0  0  0  0
    3.6106   -2.6230    0.0000 C   0  0  0  0  0  0  0  0  0  0  0  0
    6.4219   -2.6321    0.0000 C   0  0  0  0  0  0  0  0  0  0  0  0
    5.7604   -3.0180    0.0000 C   0  0  0  0  0  0  0  0  0  0  0  0
    4.3272   -3.0272    0.0000 C   0  0  0  0  0  0  0  0  0  0  0  0
    4.3410   -3.8357    0.0000 C   0  0  0  0  0  0  0  0  0  0  0  0
    3.6244   -4.2720    0.0000 C   0  0  0  0  0  0  0  0  0  0  0  0
    5.0506   -4.2859    0.0000 N   0  0  0  0  0  0  0  0  0  0  0  0
    2.9077   -3.8862    0.0000 N   0  0  0  0  0  0  0  0  0  0  0  0
    5.0369   -2.6321    0.0000 N   0  0  0  0  0  0  0  0  0  0  0  0
    6.6699   -1.8053    0.0000 N   0  0  0  0  0  0  0  0  0  0  0  0
  1  6  1  0  0  0  0
  6  7  1  0  0  0  0
  7  8  2  0  0  0  0
  8  9  1  0  0  0  0
  9 10  2  0  0  0  0
  3 10  1  0  0  0  0
  6 11  2  0  0  0  0
 10 11  1  0  0  0  0
  2 12  1  0  0  0  0
 13 14  1  0  0  0  0
 11 15  1  0  0  0  0
 12 15  1  0  0  0  0
 15 16  2  0  0  0  0
 16 17  1  0  0  0  0
 12 18  2  0  0  0  0
 18 19  1  0  0  0  0
 17 19  2  0  0  0  0
 20 21  1  0  0  0  0
 19 22  1  0  0  0  0
 22 23  2  0  0  0  0
 23 24  1  0  0  0  0
  4 25  1  0  0  0  0
  5 25  1  0  0  0  0
 23 25  1  0  0  0  0
 17 26  1  0  0  0  0
 24 26  2  0  0  0  0
 14 27  1  0  0  0  0
 21 27  1  0  0  0  0
 22 27  1  0  0  0  0
 13 28  1  0  0  0  0
 20 28  1  0  0  0  0
M  END
> <ID>
SCHEMBL21137054

> <InChIKey>
JTFJVVWGQXYTBP-UHFFFAOYSA-N

> <MW>
400.88

> <Series_Name>
Series_17

$$$$
SCHEMBL21137062
  Mrv1719007171905232D 0   0.00000     0.00000     0

 32 35  0  0  0  0              1 V2000 
    2.1626   -0.2080    0.0000 F   0  0  0  0  0  0  0  0  0  0  0  0
    7.1534   -0.5753    0.0000 O   0  0  0  0  0  0  0  0  0  0  0  0
    2.9667   -0.6169    0.0000 Cl  0  0  0  0  0  0  0  0  0  0  0  0
    8.5675   -1.3863    0.0000 C   0  0  0  0  0  0  0  0  0  0  0  0
    0.9427   -2.7103    0.0000 O   0  0  0  0  0  0  0  0  0  0  0  0
    5.7533   -3.8956    0.0000 C   0  0  0  0  0  0  0  0  0  0  0  0
    5.0601   -5.1156    0.0000 C   0  0  0  0  0  0  0  0  0  0  0  0
    1.4418   -0.6054    0.0000 C   0  0  0  0  0  0  0  0  0  0  0  0
    0.6932   -0.2080    0.0000 C   0  0  0  0  0  0  0  0  0  0  0  0
    0.0139   -0.6239    0.0000 C   0  0  0  0  0  0  0  0  0  0  0  0
    0.0278   -1.4418    0.0000 C   0  0  0  0  0  0  0  0  0  0  0  0
    0.7301   -1.8623    0.0000 C   0  0  0  0  0  0  0  0  0  0  0  0
    1.4464   -1.4187    0.0000 C   0  0  0  0  0  0  0  0  0  0  0  0
    7.0934   -1.4141    0.0000 C   0  0  0  0  0  0  0  0  0  0  0  0
    2.8743   -1.4187    0.0000 C   0  0  0  0  0  0  0  0  0  0  0  0
    7.8882   -1.7884    0.0000 C   0  0  0  0  0  0  0  0  0  0  0  0
    5.6978   -1.4141    0.0000 C   0  0  0  0  0  0  0  0  0  0  0  0
    5.0878   -1.7745    0.0000 C   0  0  0  0  0  0  0  0  0  0  0  0
    2.1765   -2.6756    0.0000 C   0  0  0  0  0  0  0  0  0  0  0  0
    2.8974   -3.0869    0.0000 C   0  0  0  0  0  0  0  0  0  0  0  0
    3.5906   -1.8299    0.0000 C   0  0  0  0  0  0  0  0  0  0  0  0
    3.6045   -2.6664    0.0000 C   0  0  0  0  0  0  0  0  0  0  0  0
    6.4603   -2.6340    0.0000 C   0  0  0  0  0  0  0  0  0  0  0  0
    5.7256   -3.0499    0.0000 C   0  0  0  0  0  0  0  0  0  0  0  0
    4.3161   -3.0731    0.0000 C   0  0  0  0  0  0  0  0  0  0  0  0
    4.3254   -3.9002    0.0000 C   0  0  0  0  0  0  0  0  0  0  0  0
    3.6184   -4.3254    0.0000 C   0  0  0  0  0  0  0  0  0  0  0  0
    2.1558   -1.8854    0.0000 C   0  0  0  0  0  0  0  0  0  0  0  0
    5.0462   -4.3392    0.0000 N   0  0  0  0  0  0  0  0  0  0  0  0
    6.4464   -1.8299    0.0000 N   0  0  0  0  0  0  0  0  0  0  0  0
    2.8974   -3.9372    0.0000 N   0  0  0  0  0  0  0  0  0  0  0  0
    5.0324   -2.6756    0.0000 N   0  0  0  0  0  0  0  0  0  0  0  0
  1  8  1  0  0  0  0
  8  9  1  0  0  0  0
  9 10  2  0  0  0  0
 10 11  1  0  0  0  0
 11 12  2  0  0  0  0
  5 12  1  0  0  0  0
  8 13  2  0  0  0  0
 12 13  1  0  0  0  0
  2 14  2  0  0  0  0
  3 15  1  0  0  0  0
  4 16  2  0  0  0  0
 14 16  1  0  0  0  0
 17 18  1  0  0  0  0
 19 20  1  0  0  0  0
 15 21  2  0  0  0  0
 21 22  1  0  0  0  0
 20 22  2  0  0  0  0
 23 24  1  0  0  0  0
 22 25  1  0  0  0  0
 25 26  2  0  0  0  0
 26 27  1  0  0  0  0
 13 28  1  0  0  0  0
 15 28  1  0  0  0  0
 19 28  2  0  0  0  0
  6 29  1  0  0  0  0
  7 29  1  0  0  0  0
 26 29  1  0  0  0  0
 14 30  1  0  0  0  0
 17 30  1  0  0  0  0
 23 30  1  0  0  0  0
 20 31  1  0  0  0  0
 27 31  2  0  0  0  0
 18 32  1  0  0  0  0
 24 32  1  0  0  0  0
 25 32  1  0  0  0  0
M  END
> <ID>
SCHEMBL21137062

> <InChIKey>
SBCWGMDDQICGJG-UHFFFAOYSA-N

> <MW>
454.93

> <Series_Name>
Series_17

$$$$
SCHEMBL21137067
  Mrv1719007171905242D 0   0.00000     0.00000     0

 34 37  0  0  0  0              1 V2000 
    2.1771   -0.2073    0.0000 F   0  0  0  0  0  0  0  0  0  0  0  0
    8.6119   -0.5391    0.0000 C   0  0  0  0  0  0  0  0  0  0  0  0
    7.1811   -0.5737    0.0000 O   0  0  0  0  0  0  0  0  0  0  0  0
    2.9858   -0.6152    0.0000 Cl  0  0  0  0  0  0  0  0  0  0  0  0
    9.3168   -0.9538    0.0000 C   0  0  0  0  0  0  0  0  0  0  0  0
    9.3583   -1.7555    0.0000 C   0  0  0  0  0  0  0  0  0  0  0  0
    0.9469   -2.6886    0.0000 O   0  0  0  0  0  0  0  0  0  0  0  0
    5.7781   -3.8428    0.0000 C   0  0  0  0  0  0  0  0  0  0  0  0
    1.4514   -0.6036    0.0000 C   0  0  0  0  0  0  0  0  0  0  0  0
    0.7050   -0.2073    0.0000 C   0  0  0  0  0  0  0  0  0  0  0  0
    0.0277   -0.6082    0.0000 C   0  0  0  0  0  0  0  0  0  0  0  0
    0.0277   -1.4376    0.0000 C   0  0  0  0  0  0  0  0  0  0  0  0
    0.7372   -1.8339    0.0000 C   0  0  0  0  0  0  0  0  0  0  0  0
    8.6291   -1.3478    0.0000 C   0  0  0  0  0  0  0  0  0  0  0  0
    1.4560   -1.4145    0.0000 C   0  0  0  0  0  0  0  0  0  0  0  0
    7.2618   -1.3961    0.0000 C   0  0  0  0  0  0  0  0  0  0  0  0
    2.8891   -1.4145    0.0000 C   0  0  0  0  0  0  0  0  0  0  0  0
    5.7228   -1.3961    0.0000 C   0  0  0  0  0  0  0  0  0  0  0  0
    5.0870   -1.7694    0.0000 C   0  0  0  0  0  0  0  0  0  0  0  0
    2.1748   -1.8201    0.0000 C   0  0  0  0  0  0  0  0  0  0  0  0
    2.1841   -2.6402    0.0000 C   0  0  0  0  0  0  0  0  0  0  0  0
    2.9029   -3.0503    0.0000 C   0  0  0  0  0  0  0  0  0  0  0  0
    3.6217   -2.6310    0.0000 C   0  0  0  0  0  0  0  0  0  0  0  0
    3.6079   -1.8247    0.0000 C   0  0  0  0  0  0  0  0  0  0  0  0
    6.4831   -2.5988    0.0000 C   0  0  0  0  0  0  0  0  0  0  0  0
    5.7781   -3.0273    0.0000 C   0  0  0  0  0  0  0  0  0  0  0  0
    4.3405   -3.0365    0.0000 C   0  0  0  0  0  0  0  0  0  0  0  0
    4.3543   -3.8475    0.0000 C   0  0  0  0  0  0  0  0  0  0  0  0
    3.6493   -4.2714    0.0000 C   0  0  0  0  0  0  0  0  0  0  0  0
    5.0455   -2.6471    0.0000 N   0  0  0  0  0  0  0  0  0  0  0  0
    5.0662   -4.2852    0.0000 N   0  0  0  0  0  0  0  0  0  0  0  0
    2.9167   -3.8981    0.0000 N   0  0  0  0  0  0  0  0  0  0  0  0
    6.4761   -1.8108    0.0000 N   0  0  0  0  0  0  0  0  0  0  0  0
    7.9069   -1.7970    0.0000 O   0  0  0  0  0  0  0  0  0  0  0  0
  1  9  1  0  0  0  0
  9 10  1  0  0  0  0
 10 11  2  0  0  0  0
 11 12  1  0  0  0  0
 12 13  2  0  0  0  0
  7 13  1  0  0  0  0
  2 14  1  0  0  0  0
  5 14  1  0  0  0  0
  6 14  1  0  0  0  0
  9 15  2  0  0  0  0
 13 15  1  0  0  0  0
  3 16  2  0  0  0  0
  4 17  1  0  0  0  0
 18 19  1  0  0  0  0
 15 20  1  0  0  0  0
 17 20  1  0  0  0  0
 20 21  2  0  0  0  0
 21 22  1  0  0  0  0
 22 23  2  0  0  0  0
 23 24  1  0  0  0  0
 17 24  2  0  0  0  0
 25 26  1  0  0  0  0
 23 27  1  0  0  0  0
 27 28  2  0  0  0  0
 28 29  1  0  0  0  0
 19 30  1  0  0  0  0
 26 30  1  0  0  0  0
 27 30  1  0  0  0  0
  8 31  1  0  0  0  0
 28 31  1  0  0  0  0
 22 32  1  0  0  0  0
 29 32  2  0  0  0  0
 16 33  1  0  0  0  0
 18 33  1  0  0  0  0
 25 33  1  0  0  0  0
 14 34  1  0  0  0  0
 16 34  1  0  0  0  0
M  END
> <ID>
SCHEMBL21137067

> <InChIKey>
RUXLWHZBQGHMJB-UHFFFAOYSA-N

> <MW>
486.97

> <Series_Name>
Series_17

$$$$
SCHEMBL21137102
  Mrv1719007171905282D 0   0.00000     0.00000     0

 41 45  0  0  0  0              1 V2000 
    7.4376   -1.6127    0.0000 C   0  0  0  0  0  0  0  0  0  0  0  0
    9.0919   -1.5849    0.0000 C   0  0  0  0  0  0  0  0  0  0  0  0
    7.8824   -2.3077    0.0000 C   0  0  0  0  0  0  0  0  0  0  0  0
    2.0436   -2.4190    0.0000 C   0  0  0  0  0  0  0  0  0  0  0  0
    2.7109   -2.4259    0.0000 Cl  0  0  0  0  0  0  0  0  0  0  0  0
    7.0622   -3.7674    0.0000 C   0  0  0  0  0  0  0  0  0  0  0  0
    7.8963   -3.7674    0.0000 C   0  0  0  0  0  0  0  0  0  0  0  0
    9.1336   -4.4487    0.0000 C   0  0  0  0  0  0  0  0  0  0  0  0
    8.2474   -1.5883    0.0000 C   0  0  0  0  0  0  0  0  0  0  0  0
    5.7693   -1.6543    0.0000 C   0  0  0  0  0  0  0  0  0  0  0  0
    5.3801   -2.3494    0.0000 C   0  0  0  0  0  0  0  0  0  0  0  0
    7.0205   -2.3773    0.0000 C   0  0  0  0  0  0  0  0  0  0  0  0
    6.6451   -3.0446    0.0000 C   0  0  0  0  0  0  0  0  0  0  0  0
    1.6451   -3.1279    0.0000 C   0  0  0  0  0  0  0  0  0  0  0  0
    3.3040   -3.1001    0.0000 C   0  0  0  0  0  0  0  0  0  0  0  0
    4.5552   -3.8091    0.0000 C   0  0  0  0  0  0  0  0  0  0  0  0
    4.1289   -3.0862    0.0000 C   0  0  0  0  0  0  0  0  0  0  0  0
    2.9101   -3.8231    0.0000 C   0  0  0  0  0  0  0  0  0  0  0  0
    0.8202   -3.1418    0.0000 C   0  0  0  0  0  0  0  0  0  0  0  0
    0.4171   -3.8648    0.0000 C   0  0  0  0  0  0  0  0  0  0  0  0
    0.8295   -4.5737    0.0000 C   0  0  0  0  0  0  0  0  0  0  0  0
    2.0668   -3.8370    0.0000 C   0  0  0  0  0  0  0  0  0  0  0  0
    5.3986   -3.7952    0.0000 C   0  0  0  0  0  0  0  0  0  0  0  0
    5.8203   -4.5043    0.0000 C   0  0  0  0  0  0  0  0  0  0  0  0
    4.1613   -4.5321    0.0000 C   0  0  0  0  0  0  0  0  0  0  0  0
    3.3365   -4.5321    0.0000 C   0  0  0  0  0  0  0  0  0  0  0  0
    1.6590   -4.5598    0.0000 C   0  0  0  0  0  0  0  0  0  0  0  0
    1.9184   -5.3523    0.0000 C   0  0  0  0  0  0  0  0  0  0  0  0
    5.4079   -5.2271    0.0000 C   0  0  0  0  0  0  0  0  0  0  0  0
    7.9102   -5.1854    0.0000 C   0  0  0  0  0  0  0  0  0  0  0  0
    7.0900   -5.1993    0.0000 C   0  0  0  0  0  0  0  0  0  0  0  0
    6.5896   -0.2155    0.0000 O   0  0  0  0  0  0  0  0  0  0  0  0
    7.0136   -0.9002    0.0000 C   0  0  0  0  0  0  0  0  0  0  0  0
    4.5807   -5.2619    0.0000 N   0  0  0  0  0  0  0  0  0  0  0  0
    5.7971   -3.0932    0.0000 N   0  0  0  0  0  0  0  0  0  0  0  0
    8.3134   -4.4904    0.0000 N   0  0  0  0  0  0  0  0  0  0  0  0
    6.6451   -4.5182    0.0000 N   0  0  0  0  0  0  0  0  0  0  0  0
    0.3754   -5.3940    0.0000 N   0  0  0  0  0  0  0  0  0  0  0  0
    6.6035   -1.6543    0.0000 N   0  0  0  0  0  0  0  0  0  0  0  0
    1.2651   -5.8666    0.0000 N   0  0  0  0  0  0  0  0  0  0  0  0
    7.8477   -0.9106    0.0000 O   0  0  0  0  0  0  0  0  0  0  0  0
  1  9  1  0  0  0  0
  2  9  1  0  0  0  0
  3  9  1  0  0  0  0
 10 11  1  0  0  0  0
 12 13  1  0  0  0  0
  4 14  1  0  0  0  0
  5 15  1  0  0  0  0
 16 17  1  0  0  0  0
 15 17  2  0  0  0  0
 15 18  1  0  0  0  0
 14 19  1  0  0  0  0
 19 20  2  0  0  0  0
 20 21  1  0  0  0  0
 14 22  2  0  0  0  0
 18 22  1  0  0  0  0
 16 23  1  0  0  0  0
 23 24  2  0  0  0  0
 16 25  2  0  0  0  0
 18 26  2  0  0  0  0
 25 26  1  0  0  0  0
 22 27  1  0  0  0  0
 21 27  2  0  0  0  0
 27 28  1  0  0  0  0
 24 29  1  0  0  0  0
 30 31  1  0  0  0  0
 32 33  2  0  0  0  0
 25 34  1  0  0  0  0
 29 34  2  0  0  0  0
 11 35  1  0  0  0  0
 13 35  1  0  0  0  0
 23 35  1  0  0  0  0
  7 36  1  0  0  0  0
  8 36  1  0  0  0  0
 30 36  1  0  0  0  0
  6 37  1  0  0  0  0
 24 37  1  0  0  0  0
 31 37  1  0  0  0  0
 21 38  1  0  0  0  0
 10 39  1  0  0  0  0
 12 39  1  0  0  0  0
 33 39  1  0  0  0  0
 28 40  2  0  0  0  0
 38 40  1  0  0  0  0
  9 41  1  0  0  0  0
 33 41  1  0  0  0  0
M  END
> <ID>
SCHEMBL21137102

> <InChIKey>
AYGSRHPXPMHRKX-UHFFFAOYSA-N

> <MW>
578.16

> <Series_Name>
Series_17

$$$$
SCHEMBL21137260
  Mrv1719007171906112D 0   0.00000     0.00000     0

 34 39  0  0  0  0              1 V2000 
   19.6551    2.1584    0.0000 O   0  0  0  0  0  0  0  0  0  0  0  0
   22.4979    3.4295    0.0000 C   0  0  0  0  0  0  0  0  0  0  0  0
   15.4856    1.4415    0.0000 C   0  0  0  0  0  0  0  0  0  0  0  0
   26.2997    3.9021    0.0000 C   0  0  0  0  0  0  0  0  0  0  0  0
   25.6395    4.3422    0.0000 C   0  0  0  0  0  0  0  0  0  0  0  0
   24.9285    3.9247    0.0000 C   0  0  0  0  0  0  0  0  0  0  0  0
   24.2344    4.3253    0.0000 C   0  0  0  0  0  0  0  0  0  0  0  0
   23.4895    3.8852    0.0000 C   0  0  0  0  0  0  0  0  0  0  0  0
   24.9285    3.0331    0.0000 C   0  0  0  0  0  0  0  0  0  0  0  0
   20.9840    3.6989    0.0000 C   0  0  0  0  0  0  0  0  0  0  0  0
   20.3972    3.0049    0.0000 C   0  0  0  0  0  0  0  0  0  0  0  0
   22.0337    2.9034    0.0000 C   0  0  0  0  0  0  0  0  0  0  0  0
   21.6443    3.6312    0.0000 C   0  0  0  0  0  0  0  0  0  0  0  0
   19.3420    2.9879    0.0000 C   0  0  0  0  0  0  0  0  0  0  0  0
   18.9470    2.6437    0.0000 C   0  0  0  0  0  0  0  0  0  0  0  0
   18.9526    1.7295    0.0000 C   0  0  0  0  0  0  0  0  0  0  0  0
   18.0724    2.9710    0.0000 C   0  0  0  0  0  0  0  0  0  0  0  0
   17.5475    2.5986    0.0000 C   0  0  0  0  0  0  0  0  0  0  0  0
   17.5475    1.7466    0.0000 C   0  0  0  0  0  0  0  0  0  0  0  0
   24.2175    2.6324    0.0000 C   0  0  0  0  0  0  0  0  0  0  0  0
   22.7842    2.6155    0.0000 C   0  0  0  0  0  0  0  0  0  0  0  0
   22.7785    1.7182    0.0000 C   0  0  0  0  0  0  0  0  0  0  0  0
   22.1014    1.4474    0.0000 C   0  0  0  0  0  0  0  0  0  0  0  0
   25.6056    2.6155    0.0000 C   0  0  0  0  0  0  0  0  0  0  0  0
   16.1255    1.7295    0.0000 C   0  0  0  0  0  0  0  0  0  0  0  0
   20.1884    1.3289    0.0000 C   0  0  0  0  0  0  0  0  0  0  0  0
   19.5790    1.2104    0.0000 C   0  0  0  0  0  0  0  0  0  0  0  0
   18.2755    1.3120    0.0000 C   0  0  0  0  0  0  0  0  0  0  0  0
   16.8196    0.4486    0.0000 C   0  0  0  0  0  0  0  0  0  0  0  0
   20.6492    2.2544    0.0000 C   0  0  1  0  0  0  0  0  0  0  0  0
   23.4472    3.0387    0.0000 C   0  0  0  0  0  0  0  0  0  0  0  0
   21.4835    2.1246    0.0000 C   0  0  0  0  0  0  0  0  0  0  0  0
   16.8703    1.3035    0.0000 N   0  0  0  0  0  0  0  0  0  0  0  0
   26.3506    3.0387    0.0000 N   0  0  0  0  0  0  0  0  0  0  0  0
  4  5  2  0  0  0  0
  5  6  1  0  0  0  0
  6  7  1  0  0  0  0
  7  8  2  0  0  0  0
  6  9  2  0  0  0  0
 10 11  2  0  0  0  0
 12  2  1  0  0  0  0
 12 13  1  0  0  0  0
 10 13  1  0  0  0  0
 11 14  1  0  0  0  0
 14 15  2  0  0  0  0
 15 16  1  0  0  0  0
 15 17  1  0  0  0  0
 17 18  1  0  0  0  0
 18 19  1  0  0  0  0
  9 20  1  0  0  0  0
 12 21  1  0  0  0  0
 21 22  1  0  0  0  0
 22 23  1  0  0  0  0
  9 24  1  0  0  0  0
 25  3  1  0  0  0  0
 26 27  1  0  0  0  0
 16 27  1  0  0  0  0
 16 28  1  0  0  0  0
 19 28  1  0  0  0  0
 30 26  1  0  0  0  0
 30 11  1  0  0  0  0
  8 31  1  0  0  0  0
 20 31  2  0  0  0  0
 21 31  1  0  0  0  0
 30 32  1  0  0  0  0
 23 32  1  0  0  0  0
 12 32  1  0  0  0  0
 19 33  1  0  0  0  0
 25 33  1  0  0  0  0
 29 33  1  0  0  0  0
  4 34  1  0  0  0  0
 24 34  2  0  0  0  0
 30  1  1  6  0  0  0
M  END
> <ID>
SCHEMBL21137260

> <InChIKey>
RJUVGLKWCQLCOB-INGRAILHSA-N

> <MW>
456.674

> <Series_Name>
Series_16

$$$$
SCHEMBL21137275
  Mrv1719007171906122D 0   0.00000     0.00000     0

 36 42  0  0  0  0              1 V2000 
    4.8594   -2.1952    0.0000 O   0  0  0  0  0  0  0  0  0  0  0  0
    0.1137   -2.8062    0.0000 F   0  0  0  0  0  0  0  0  0  0  0  0
    0.1137   -4.0140    0.0000 F   0  0  0  0  0  0  0  0  0  0  0  0
    5.8220   -2.2379    0.0000 C   0  0  2  0  0  0  0  0  0  0  0  0
    9.9745   -0.5068    0.0000 C   0  0  0  0  0  0  0  0  0  0  0  0
    9.1077   -0.1705    0.0000 C   0  0  0  0  0  0  0  0  0  0  0  0
    8.5963   -0.5399    0.0000 C   0  0  0  0  0  0  0  0  0  0  0  0
    8.5867   -1.3829    0.0000 C   0  0  0  0  0  0  0  0  0  0  0  0
   11.4096   -0.5258    0.0000 C   0  0  0  0  0  0  0  0  0  0  0  0
   10.7701   -0.0995    0.0000 C   0  0  0  0  0  0  0  0  0  0  0  0
    9.9887   -1.3829    0.0000 C   0  0  0  0  0  0  0  0  0  0  0  0
    7.1398   -1.5275    0.0000 C   0  0  0  0  0  0  0  0  0  0  0  0
    6.7492   -0.7815    0.0000 C   0  0  0  0  0  0  0  0  0  0  0  0
    5.9392   -0.7388    0.0000 C   0  0  0  0  0  0  0  0  0  0  0  0
    5.4752   -1.4209    0.0000 C   0  0  0  0  0  0  0  0  0  0  0  0
    4.7030   -1.2504    0.0000 C   0  0  0  0  0  0  0  0  0  0  0  0
    4.0684   -1.7762    0.0000 C   0  0  0  0  0  0  0  0  0  0  0  0
    3.3959   -1.3782    0.0000 C   0  0  0  0  0  0  0  0  0  0  0  0
    2.7707   -1.7050    0.0000 C   0  0  0  0  0  0  0  0  0  0  0  0
    2.6618   -2.6618    0.0000 C   0  0  0  0  0  0  0  0  0  0  0  0
    9.3351   -1.7903    0.0000 C   0  0  0  0  0  0  0  0  0  0  0  0
    7.8953   -1.7998    0.0000 C   0  0  0  0  0  0  0  0  0  0  0  0
   10.6707   -1.7903    0.0000 C   0  0  0  0  0  0  0  0  0  0  0  0
    6.6828   -2.3018    0.0000 C   0  0  0  0  0  0  0  0  0  0  0  0
    4.0921   -2.6618    0.0000 C   0  0  0  0  0  0  0  0  0  0  0  0
    7.8858   -2.5860    0.0000 C   0  0  0  0  0  0  0  0  0  0  0  0
    5.3993   -3.0406    0.0000 C   0  0  0  0  0  0  0  0  0  0  0  0
    4.6888   -3.1685    0.0000 C   0  0  0  0  0  0  0  0  0  0  0  0
    7.1328   -2.9554    0.0000 C   0  0  0  0  0  0  0  0  0  0  0  0
    3.3532   -3.0833    0.0000 C   0  0  0  0  0  0  0  0  0  0  0  0
    1.1935   -2.7565    0.0000 C   0  0  0  0  0  0  0  0  0  0  0  0
    0.6643   -3.3959    0.0000 C   0  0  0  0  0  0  0  0  0  0  0  0
    1.8187   -3.9642    0.0000 C   0  0  0  0  0  0  0  0  0  0  0  0
    1.2077   -4.1205    0.0000 C   0  0  0  0  0  0  0  0  0  0  0  0
    1.9537   -3.1117    0.0000 N   0  0  0  0  0  0  0  0  0  0  0  0
   11.4024   -1.4066    0.0000 N   0  0  0  0  0  0  0  0  0  0  0  0
  5  6  1  0  0  0  0
  6  7  2  0  0  0  0
  7  8  1  0  0  0  0
  9 10  2  0  0  0  0
  5 10  1  0  0  0  0
  5 11  2  0  0  0  0
 12 13  1  0  0  0  0
 13 14  1  0  0  0  0
 14 15  2  0  0  0  0
  4 15  1  0  0  0  0
 15 16  1  0  0  0  0
 16 17  2  0  0  0  0
 17 18  1  0  0  0  0
 18 19  1  0  0  0  0
 19 20  1  0  0  0  0
 11 21  1  0  0  0  0
  8 21  2  0  0  0  0
  8 22  1  0  0  0  0
 12 22  1  0  0  0  0
 11 23  1  0  0  0  0
 12 24  1  0  0  0  0
  4 24  1  0  0  0  0
 17 25  1  0  0  0  0
 22 26  1  0  0  0  0
  4 27  1  0  0  0  0
 27 28  1  0  0  0  0
 25 28  1  0  0  0  0
 24 29  1  0  0  0  0
 26 29  1  0  0  0  0
 25 30  1  0  0  0  0
 20 30  1  0  0  0  0
 31 32  1  0  0  0  0
  2 32  1  0  0  0  0
  3 32  1  0  0  0  0
 33 34  1  0  0  0  0
 32 34  1  0  0  0  0
 20 35  1  0  0  0  0
 31 35  1  0  0  0  0
 33 35  1  0  0  0  0
  9 36  1  0  0  0  0
 23 36  2  0  0  0  0
  4  1  1  6  0  0  0
M  END
> <ID>
SCHEMBL21137275

> <InChIKey>
GQRGRZHVKBOUSV-YWVKSWCLSA-N

> <MW>
490.639

> <Series_Name>
Series_16

$$$$
SCHEMBL21137278
  Mrv1719007171906132D 0   0.00000     0.00000     0

 41 46  0  0  0  0              1 V2000 
   10.3070   -2.1182    0.0000 O   0  0  0  0  0  0  0  0  0  0  0  0
    1.0116   -2.5247    0.0000 O   0  0  0  0  0  0  0  0  0  0  0  0
   11.4203   -2.0811    0.0000 C   0  0  1  0  0  0  0  0  0  0  0  0
   15.7549   -0.4421    0.0000 C   0  0  0  0  0  0  0  0  0  0  0  0
   15.0917   -0.0541    0.0000 C   0  0  0  0  0  0  0  0  0  0  0  0
   14.2796   -0.4602    0.0000 C   0  0  0  0  0  0  0  0  0  0  0  0
   14.2615   -1.2768    0.0000 C   0  0  0  0  0  0  0  0  0  0  0  0
   17.2032   -0.4467    0.0000 C   0  0  0  0  0  0  0  0  0  0  0  0
   16.5400   -0.0541    0.0000 C   0  0  0  0  0  0  0  0  0  0  0  0
   15.7459   -1.2768    0.0000 C   0  0  0  0  0  0  0  0  0  0  0  0
   12.7907   -1.4144    0.0000 C   0  0  0  0  0  0  0  0  0  0  0  0
   12.3846   -0.7038    0.0000 C   0  0  0  0  0  0  0  0  0  0  0  0
   11.6673   -0.6497    0.0000 C   0  0  0  0  0  0  0  0  0  0  0  0
   11.0898   -1.3264    0.0000 C   0  0  0  0  0  0  0  0  0  0  0  0
   10.2326   -1.1640    0.0000 C   0  0  0  0  0  0  0  0  0  0  0  0
    9.6009   -1.6603    0.0000 C   0  0  0  0  0  0  0  0  0  0  0  0
    9.6055   -2.5085    0.0000 C   0  0  0  0  0  0  0  0  0  0  0  0
    8.7437   -1.2994    0.0000 C   0  0  0  0  0  0  0  0  0  0  0  0
    8.1346   -1.6784    0.0000 C   0  0  0  0  0  0  0  0  0  0  0  0
    8.1256   -2.5085    0.0000 C   0  0  0  0  0  0  0  0  0  0  0  0
   16.4587   -1.6784    0.0000 C   0  0  0  0  0  0  0  0  0  0  0  0
   15.0105   -1.6784    0.0000 C   0  0  0  0  0  0  0  0  0  0  0  0
   13.5712   -1.6964    0.0000 C   0  0  0  0  0  0  0  0  0  0  0  0
   13.5758   -2.5040    0.0000 C   0  0  0  0  0  0  0  0  0  0  0  0
   12.8042   -2.7882    0.0000 C   0  0  0  0  0  0  0  0  0  0  0  0
   11.0717   -2.8288    0.0000 C   0  0  0  0  0  0  0  0  0  0  0  0
   10.3679   -3.0048    0.0000 C   0  0  0  0  0  0  0  0  0  0  0  0
    8.9061   -2.8965    0.0000 C   0  0  0  0  0  0  0  0  0  0  0  0
    2.3280   -2.5175    0.0000 C   0  0  0  0  0  0  0  0  0  0  0  0
    1.5836   -2.8965    0.0000 C   0  0  0  0  0  0  0  0  0  0  0  0
    4.5207   -2.8965    0.0000 C   0  0  0  0  0  0  0  0  0  0  0  0
    3.7899   -2.5175    0.0000 C   0  0  0  0  0  0  0  0  0  0  0  0
    6.7135   -2.5175    0.0000 C   0  0  0  0  0  0  0  0  0  0  0  0
    5.9961   -2.8965    0.0000 C   0  0  0  0  0  0  0  0  0  0  0  0
   12.2516   -2.1724    0.0000 C   0  0  0  0  0  0  0  0  0  0  0  0
    7.3488   -2.8749    0.0000 N   0  0  0  0  0  0  0  0  0  0  0  0
    5.2111   -2.5311    0.0000 O   0  0  0  0  0  0  0  0  0  0  0  0
   17.2032   -1.3062    0.0000 N   0  0  0  0  0  0  0  0  0  0  0  0
    3.0454   -2.9439    0.0000 O   0  0  0  0  0  0  0  0  0  0  0  0
   13.2298   -0.8923    0.0000 C   0  0  0  0  0  0  0  0  0  0  0  0
    0.4396   -2.1529    0.0000 C   0  0  0  0  0  0  0  0  0  0  0  0
  4  5  1  0  0  0  0
  5  6  2  0  0  0  0
  6  7  1  0  0  0  0
  8  9  2  0  0  0  0
  4  9  1  0  0  0  0
  4 10  2  0  0  0  0
 11 12  1  0  0  0  0
 12 13  1  0  0  0  0
 13 14  2  0  0  0  0
  3 14  1  0  0  0  0
 14 15  1  0  0  0  0
 15 16  2  0  0  0  0
 16 17  1  0  0  0  0
 16 18  1  0  0  0  0
 18 19  1  0  0  0  0
 19 20  1  0  0  0  0
 10 21  1  0  0  0  0
 10 22  1  0  0  0  0
  7 22  2  0  0  0  0
  7 23  1  0  0  0  0
 11 23  1  0  0  0  0
 23 24  1  0  0  0  0
 24 25  1  0  0  0  0
  3 26  1  0  0  0  0
 26 27  1  0  0  0  0
 17 27  1  0  0  0  0
 17 28  1  0  0  0  0
 20 28  1  0  0  0  0
 29 30  1  0  0  0  0
 31 32  1  0  0  0  0
 33 34  1  0  0  0  0
 25 35  1  0  0  0  0
 11 35  1  0  0  0  0
  3 35  1  0  0  0  0
 20 36  1  0  0  0  0
 33 36  1  0  0  0  0
 31 37  1  0  0  0  0
 34 37  1  0  0  0  0
  8 38  1  0  0  0  0
 21 38  2  0  0  0  0
 29 39  1  0  0  0  0
 32 39  1  0  0  0  0
  3  1  1  6  0  0  0
 11 40  1  0  0  0  0
 30  2  1  0  0  0  0
  2 41  1  0  0  0  0
M  END
> <ID>
SCHEMBL21137278

> <InChIKey>
ORBCAACGJLCAMB-VFZHVAKWSA-N

> <MW>
560.779

> <Series_Name>
Series_16

$$$$
SCHEMBL21137286
  Mrv1719007171906142D 0   0.00000     0.00000     0

 33 39  0  0  1  0              1 V2000 
    1.3418   -3.0862    0.0000 N   0  0  0  0  0  0  0  0  0  0  0  0
    1.3418   -3.9249    0.0000 C   0  0  0  0  0  0  0  0  0  0  0  0
    2.7194   -3.0715    0.0000 C   0  0  0  0  0  0  0  0  0  0  0  0
    2.0210   -2.6748    0.0000 C   0  0  0  0  0  0  0  0  0  0  0  0
    2.0266   -1.8165    0.0000 C   0  0  0  0  0  0  0  0  0  0  0  0
    2.7796   -1.3880    0.0000 C   0  0  0  0  0  0  0  0  0  0  0  0
    4.9211   -1.4322    0.0000 C   0  0  0  0  0  0  0  0  0  0  0  0
    5.3595   -0.7654    0.0000 C   0  0  0  0  0  0  0  0  0  0  0  0
    6.1774   -0.8295    0.0000 C   0  0  0  0  0  0  0  0  0  0  0  0
    6.5693   -1.5598    0.0000 C   0  0  0  0  0  0  0  0  0  0  0  0
    7.2040   -0.8890    0.0000 C   0  0  0  0  0  0  0  0  0  0  0  0
    7.3143   -1.8250    0.0000 C   0  0  0  0  0  0  0  0  0  0  0  0
    8.0224   -1.4147    0.0000 C   0  0  0  0  0  0  0  0  0  0  0  0
    8.0293   -0.5439    0.0000 C   0  0  0  0  0  0  0  0  0  0  0  0
    8.7807   -0.1543    0.0000 C   0  0  0  0  0  0  0  0  0  0  0  0
    9.4700   -0.5353    0.0000 C   0  0  0  0  0  0  0  0  0  0  0  0
   10.2056   -0.1617    0.0000 C   0  0  0  0  0  0  0  0  0  0  0  0
   10.8857   -1.3922    0.0000 N   0  0  0  0  0  0  0  0  0  0  0  0
   10.8333   -0.5337    0.0000 C   0  0  0  0  0  0  0  0  0  0  0  0
    9.4635   -1.3827    0.0000 C   0  0  0  0  0  0  0  0  0  0  0  0
   10.1274   -1.8087    0.0000 C   0  0  0  0  0  0  0  0  0  0  0  0
    8.7304   -1.8150    0.0000 C   0  0  0  0  0  0  0  0  0  0  0  0
    6.5297   -2.9625    0.0000 C   0  0  0  0  0  0  0  0  0  0  0  0
    6.0692   -2.2803    0.0000 C   0  0  0  0  0  0  0  0  0  0  0  0
    5.2537   -2.1748    0.0000 C   0  0  1  0  0  0  0  0  0  0  0  0
    4.9585   -2.9509    0.0000 C   0  0  0  0  0  0  0  0  0  0  0  0
    4.0842   -3.1801    0.0000 C   0  0  0  0  0  0  0  0  0  0  0  0
    3.4358   -2.6650    0.0000 C   0  0  2  0  0  0  0  0  0  0  0  0
    4.0675   -1.2855    0.0000 C   0  0  0  0  0  0  0  0  0  0  0  0
    3.4395   -1.8092    0.0000 C   0  0  0  0  0  0  0  0  0  0  0  0
    7.3018   -2.6766    0.0000 C   0  0  0  0  0  0  0  0  0  0  0  0
    0.4026   -2.6501    0.0000 C   0  0  0  0  0  0  0  0  0  0  0  0
    4.2436   -2.1973    0.0000 O   0  0  0  0  0  0  0  0  0  0  0  0
  1  2  1  0  0  0  0
  3  4  1  0  0  0  0
 28  3  1  0  0  0  0
  4  1  1  0  0  0  0
  5  6  1  0  0  0  0
  5  4  1  0  0  0  0
  7  8  2  0  0  0  0
  8  9  1  0  0  0  0
 10 11  1  0  0  0  0
 10 12  1  0  0  0  0
 10 24  1  0  0  0  0
 10  9  1  0  0  0  0
 12 13  1  0  0  0  0
 13 22  2  0  0  0  0
 14 15  2  0  0  0  0
 14 13  1  0  0  0  0
 16 15  1  0  0  0  0
 16 17  1  0  0  0  0
 17 19  2  0  0  0  0
 18 19  1  0  0  0  0
 20 16  2  0  0  0  0
 20 21  1  0  0  0  0
 21 18  2  0  0  0  0
 22 20  1  0  0  0  0
 23 24  1  0  0  0  0
 23 31  1  0  0  0  0
 25 26  1  0  0  0  0
 25  7  1  0  0  0  0
 25 24  1  0  0  0  0
 25 33  1  6  0  0  0
 27 26  1  0  0  0  0
 28 27  1  0  0  0  0
 28 33  1  6  0  0  0
 28 30  1  0  0  0  0
 29  7  1  0  0  0  0
 30 29  2  0  0  0  0
 30  6  1  0  0  0  0
 31 12  1  0  0  0  0
 32  1  1  0  0  0  0
M  END
> <ID>
SCHEMBL21137286

> <InChIKey>
FXVAVHVFQHICPA-GHUBQLRXSA-N

> <MW>
440.631

> <Series_Name>
Series_16

$$$$
SCHEMBL21137301
  Mrv1719007171906172D 0   0.00000     0.00000     0

 30 35  0  0  0  0              1 V2000 
   14.4739    0.0576    0.0000 O   0  0  0  0  0  0  0  0  0  0  0  0
   22.7898    2.6664    0.0000 C   0  0  0  0  0  0  0  0  0  0  0  0
   21.8977    3.0070    0.0000 C   0  0  0  0  0  0  0  0  0  0  0  0
   21.3510    2.6329    0.0000 C   0  0  0  0  0  0  0  0  0  0  0  0
   21.3367    1.7792    0.0000 C   0  0  0  0  0  0  0  0  0  0  0  0
   24.1854    2.6472    0.0000 C   0  0  0  0  0  0  0  0  0  0  0  0
   23.4947    3.0789    0.0000 C   0  0  0  0  0  0  0  0  0  0  0  0
   22.7994    1.7792    0.0000 C   0  0  0  0  0  0  0  0  0  0  0  0
   19.9087    1.6366    0.0000 C   0  0  0  0  0  0  0  0  0  0  0  0
   19.4950    2.3740    0.0000 C   0  0  0  0  0  0  0  0  0  0  0  0
   18.6893    2.4171    0.0000 C   0  0  0  0  0  0  0  0  0  0  0  0
   18.2337    1.7265    0.0000 C   0  0  0  0  0  0  0  0  0  0  0  0
   18.5838    0.9496    0.0000 C   0  0  0  0  0  0  0  0  0  0  0  0
   17.4088    1.9136    0.0000 C   0  0  0  0  0  0  0  0  0  0  0  0
   16.7902    1.4004    0.0000 C   0  0  0  0  0  0  0  0  0  0  0  0
   16.0853    1.7984    0.0000 C   0  0  0  0  0  0  0  0  0  0  0  0
   15.3659    1.3668    0.0000 C   0  0  0  0  0  0  0  0  0  0  0  0
   15.3563    0.5276    0.0000 C   0  0  0  0  0  0  0  0  0  0  0  0
   20.6605    1.3716    0.0000 C   0  0  0  0  0  0  0  0  0  0  0  0
   22.0849    1.3668    0.0000 C   0  0  0  0  0  0  0  0  0  0  0  0
   23.4660    1.3668    0.0000 C   0  0  0  0  0  0  0  0  0  0  0  0
   19.3991    0.8920    0.0000 C   0  0  0  0  0  0  0  0  0  0  0  0
   16.7902    0.5276    0.0000 C   0  0  0  0  0  0  0  0  0  0  0  0
   20.5885    0.4604    0.0000 C   0  0  0  0  0  0  0  0  0  0  0  0
   19.8548    0.2302    0.0000 C   0  0  0  0  0  0  0  0  0  0  0  0
   18.2146    0.1727    0.0000 C   0  0  0  0  0  0  0  0  0  0  0  0
   17.4233    0.0000    0.0000 C   0  0  0  0  0  0  0  0  0  0  0  0
   16.0853    0.1007    0.0000 C   0  0  0  0  0  0  0  0  0  0  0  0
   24.1782    1.7553    0.0000 N   0  0  0  0  0  0  0  0  0  0  0  0
   20.3499    2.1612    0.0000 C   0  0  0  0  0  0  0  0  0  0  0  0
  2  3  1  0  0  0  0
  3  4  2  0  0  0  0
  4  5  1  0  0  0  0
  6  7  2  0  0  0  0
  2  7  1  0  0  0  0
  2  8  2  0  0  0  0
  9 10  1  0  0  0  0
 10 11  1  0  0  0  0
 11 12  2  0  0  0  0
 12 13  1  0  0  0  0
 12 14  1  0  0  0  0
 14 15  2  0  0  0  0
 15 16  1  0  0  0  0
 16 17  1  0  0  0  0
 17 18  1  0  0  0  0
  1 18  1  0  0  0  0
  5 19  1  0  0  0  0
  9 19  1  0  0  0  0
  8 20  1  0  0  0  0
  5 20  2  0  0  0  0
  8 21  1  0  0  0  0
  9 22  1  0  0  0  0
 13 22  1  0  0  0  0
 15 23  1  0  0  0  0
 19 24  1  0  0  0  0
 24 25  1  0  0  0  0
 22 25  1  0  0  0  0
 13 26  1  0  0  0  0
 26 27  1  0  0  0  0
 23 27  1  0  0  0  0
 23 28  1  0  0  0  0
 18 28  1  0  0  0  0
  6 29  1  0  0  0  0
 21 29  2  0  0  0  0
  9 30  1  0  0  0  0
M  END
> <ID>
SCHEMBL21137301

> <InChIKey>
NUFHBXWYMZOQQN-UHFFFAOYSA-N

> <MW>
399.578

> <Series_Name>
Series_16

$$$$
SCHEMBL21137305
  Mrv1719007171906182D 0   0.00000     0.00000     0

 40 45  0  0  0  0              1 V2000 
    0.5862    1.1574    0.0000 O   0  0  0  0  0  0  0  0  0  0  0  0
   14.6367    3.5222    0.0000 C   0  0  0  0  0  0  0  0  0  0  0  0
   13.9740    3.9399    0.0000 C   0  0  0  0  0  0  0  0  0  0  0  0
   13.2510    3.5061    0.0000 C   0  0  0  0  0  0  0  0  0  0  0  0
   13.2430    2.5984    0.0000 C   0  0  0  0  0  0  0  0  0  0  0  0
   16.0223    3.5061    0.0000 C   0  0  0  0  0  0  0  0  0  0  0  0
   15.3595    3.9399    0.0000 C   0  0  0  0  0  0  0  0  0  0  0  0
   14.6367    2.5984    0.0000 C   0  0  0  0  0  0  0  0  0  0  0  0
   11.8294    2.4518    0.0000 C   0  0  0  0  0  0  0  0  0  0  0  0
   11.4679    3.2169    0.0000 C   0  0  0  0  0  0  0  0  0  0  0  0
   10.6607    3.2771    0.0000 C   0  0  0  0  0  0  0  0  0  0  0  0
   10.2189    2.5422    0.0000 C   0  0  0  0  0  0  0  0  0  0  0  0
   10.5603    1.7470    0.0000 C   0  0  0  0  0  0  0  0  0  0  0  0
    9.4197    2.7471    0.0000 C   0  0  0  0  0  0  0  0  0  0  0  0
    8.8173    2.1847    0.0000 C   0  0  0  0  0  0  0  0  0  0  0  0
    8.1426    2.6144    0.0000 C   0  0  0  0  0  0  0  0  0  0  0  0
    7.4318    2.1688    0.0000 C   0  0  0  0  0  0  0  0  0  0  0  0
    7.4197    1.2852    0.0000 C   0  0  0  0  0  0  0  0  0  0  0  0
   13.9861    2.1688    0.0000 C   0  0  0  0  0  0  0  0  0  0  0  0
   12.5764    2.1607    0.0000 C   0  0  0  0  0  0  0  0  0  0  0  0
   15.3114    2.1688    0.0000 C   0  0  0  0  0  0  0  0  0  0  0  0
   12.5643    1.2651    0.0000 C   0  0  0  0  0  0  0  0  0  0  0  0
   11.8415    0.9639    0.0000 C   0  0  0  0  0  0  0  0  0  0  0  0
   10.1908    0.9036    0.0000 C   0  0  0  0  0  0  0  0  0  0  0  0
    9.4197    0.7349    0.0000 C   0  0  0  0  0  0  0  0  0  0  0  0
    1.8895    1.2892    0.0000 C   0  0  0  0  0  0  0  0  0  0  0  0
    1.2148    0.8434    0.0000 C   0  0  0  0  0  0  0  0  0  0  0  0
    3.9738    0.8434    0.0000 C   0  0  0  0  0  0  0  0  0  0  0  0
    3.2630    1.2892    0.0000 C   0  0  0  0  0  0  0  0  0  0  0  0
    6.0341    1.2892    0.0000 C   0  0  0  0  0  0  0  0  0  0  0  0
    5.3594    0.8434    0.0000 C   0  0  0  0  0  0  0  0  0  0  0  0
    8.1305    0.8434    0.0000 C   0  0  0  0  0  0  0  0  0  0  0  0
   11.3435    1.5883    0.0000 C   0  0  0  0  0  0  0  0  0  0  0  0
    8.8836    1.2993    0.0000 C   0  0  0  0  0  0  0  0  0  0  0  0
   16.0223    2.5784    0.0000 N   0  0  0  0  0  0  0  0  0  0  0  0
    4.6545    1.2590    0.0000 O   0  0  0  0  0  0  0  0  0  0  0  0
    6.7517    0.7656    0.0000 N   0  0  0  0  0  0  0  0  0  0  0  0
    2.5883    0.8073    0.0000 O   0  0  0  0  0  0  0  0  0  0  0  0
   12.3085    2.9657    0.0000 C   0  0  0  0  0  0  0  0  0  0  0  0
   -0.0423    1.4714    0.0000 C   0  0  0  0  0  0  0  0  0  0  0  0
  2  3  1  0  0  0  0
  3  4  2  0  0  0  0
  4  5  1  0  0  0  0
  6  7  2  0  0  0  0
  2  7  1  0  0  0  0
  2  8  2  0  0  0  0
  9 10  1  0  0  0  0
 10 11  1  0  0  0  0
 11 12  2  0  0  0  0
 12 13  1  0  0  0  0
 12 14  1  0  0  0  0
 14 15  2  0  0  0  0
 15 16  1  0  0  0  0
 16 17  1  0  0  0  0
 17 18  1  0  0  0  0
  8 19  1  0  0  0  0
  5 19  2  0  0  0  0
  5 20  1  0  0  0  0
  9 20  1  0  0  0  0
  8 21  1  0  0  0  0
 20 22  1  0  0  0  0
 22 23  1  0  0  0  0
 13 24  1  0  0  0  0
 24 25  1  0  0  0  0
 26 27  1  0  0  0  0
 28 29  1  0  0  0  0
 30 31  1  0  0  0  0
 18 32  1  0  0  0  0
  9 33  1  0  0  0  0
 13 33  1  0  0  0  0
 23 33  1  0  0  0  0
 15 34  1  0  0  0  0
 25 34  1  0  0  0  0
 32 34  1  0  0  0  0
  6 35  1  0  0  0  0
 21 35  2  0  0  0  0
 28 36  1  0  0  0  0
 31 36  1  0  0  0  0
 18 37  1  0  0  0  0
 30 37  1  0  0  0  0
 26 38  1  0  0  0  0
 29 38  1  0  0  0  0
  9 39  1  0  0  0  0
 27  1  1  0  0  0  0
  1 40  1  0  0  0  0
M  END
> <ID>
SCHEMBL21137305

> <InChIKey>
GIQQIBMRFVVVEW-UHFFFAOYSA-N

> <MW>
544.78

> <Series_Name>
Series_16

$$$$
SCHEMBL21137308
  Mrv1719007171906182D 0   0.00000     0.00000     0

 41 47  0  0  1  0              1 V2000 
    9.1120   -2.7361    0.0000 C   0  0  1  0  0  0  0  0  0  0  0  0
    8.4261   -3.1808    0.0000 C   0  0  0  0  0  0  0  0  0  0  0  0
    7.7373   -2.7197    0.0000 C   0  0  0  0  0  0  0  0  0  0  0  0
    7.0284   -3.4244    0.0000 N   0  0  0  0  0  0  0  0  0  0  0  0
    8.4174   -1.4196    0.0000 C   0  0  0  0  0  0  0  0  0  0  0  0
    9.1146   -1.8426    0.0000 C   0  0  0  0  0  0  0  0  0  0  0  0
    9.7141   -1.2874    0.0000 C   0  0  0  0  0  0  0  0  0  0  0  0
   10.5170   -1.4955    0.0000 C   0  0  0  0  0  0  0  0  0  0  0  0
   10.9462   -0.7559    0.0000 C   0  0  0  0  0  0  0  0  0  0  0  0
   11.7570   -0.8206    0.0000 C   0  0  0  0  0  0  0  0  0  0  0  0
   12.6978   -0.9220    0.0000 C   0  0  0  0  0  0  0  0  0  0  0  0
   12.1095   -1.5948    0.0000 C   0  0  0  0  0  0  0  0  0  0  0  0
   12.8240   -1.8663    0.0000 C   0  0  1  0  0  0  0  0  0  0  0  0
   13.6034   -1.3974    0.0000 C   0  0  0  0  0  0  0  0  0  0  0  0
   13.5271   -0.5375    0.0000 C   0  0  0  0  0  0  0  0  0  0  0  0
   14.2283   -0.1038    0.0000 C   0  0  0  0  0  0  0  0  0  0  0  0
   14.8980   -0.5117    0.0000 C   0  0  0  0  0  0  0  0  0  0  0  0
   15.6073   -0.1036    0.0000 C   0  0  0  0  0  0  0  0  0  0  0  0
   16.2763   -0.5230    0.0000 C   0  0  0  0  0  0  0  0  0  0  0  0
   16.2600   -1.4368    0.0000 N   0  0  0  0  0  0  0  0  0  0  0  0
   14.9001   -1.4331    0.0000 C   0  0  0  0  0  0  0  0  0  0  0  0
   15.6321   -1.8648    0.0000 C   0  0  0  0  0  0  0  0  0  0  0  0
   14.1945   -1.8543    0.0000 C   0  0  0  0  0  0  0  0  0  0  0  0
   12.8401   -2.7688    0.0000 C   0  0  0  0  0  0  0  0  0  0  0  0
   12.1078   -3.0584    0.0000 C   0  0  0  0  0  0  0  0  0  0  0  0
   11.6564   -2.3534    0.0000 C   0  0  1  0  0  0  0  0  0  0  0  0
   10.8386   -2.2817    0.0000 C   0  0  1  0  0  0  0  0  0  0  0  0
    9.7147   -3.2882    0.0000 C   0  0  0  0  0  0  0  0  0  0  0  0
   10.5078   -3.1049    0.0000 C   0  0  0  0  0  0  0  0  0  0  0  0
    7.7453   -1.8554    0.0000 C   0  0  0  0  0  0  0  0  0  0  0  0
    1.5576   -3.1821    0.0000 C   0  0  0  0  0  0  0  0  0  0  0  0
    2.2279   -2.7359    0.0000 C   0  0  0  0  0  0  0  0  0  0  0  0
    2.9095   -3.2089    0.0000 O   0  0  0  0  0  0  0  0  0  0  0  0
    1.0459   -2.9708    0.0000 O   0  0  0  0  0  0  0  0  0  0  0  0
    0.9731   -2.4220    0.0000 C   0  0  0  0  0  0  0  0  0  0  0  0
    3.6052   -2.7345    0.0000 C   0  0  0  0  0  0  0  0  0  0  0  0
    4.3143   -3.1781    0.0000 C   0  0  0  0  0  0  0  0  0  0  0  0
    4.9690   -2.7539    0.0000 O   0  0  0  0  0  0  0  0  0  0  0  0
    5.6742   -3.1830    0.0000 C   0  0  0  0  0  0  0  0  0  0  0  0
    6.3453   -2.7347    0.0000 C   0  0  0  0  0  0  0  0  0  0  0  0
    9.8542   -2.2750    0.0000 O   0  0  0  0  0  0  0  0  0  0  0  0
  1  2  1  0  0  0  0
  1  6  1  0  0  0  0
  1 41  1  6  0  0  0
  2  3  1  0  0  0  0
  3  4  1  0  0  0  0
  5  6  1  0  0  0  0
  5 30  1  0  0  0  0
  6  7  2  0  0  0  0
  7  8  1  0  0  0  0
  8  9  2  0  0  0  0
  9 10  1  0  0  0  0
 11 12  1  0  0  0  0
 12 10  1  0  0  0  0
 13 14  1  1  0  0  0
 13 24  1  0  0  0  0
 13 12  1  0  0  0  0
 14 23  2  0  0  0  0
 15 16  2  0  0  0  0
 15 14  1  0  0  0  0
 16 17  1  0  0  0  0
 17 21  2  0  0  0  0
 18 17  1  0  0  0  0
 18 19  2  0  0  0  0
 20 19  1  0  0  0  0
 21 22  1  0  0  0  0
 22 20  2  0  0  0  0
 23 21  1  0  0  0  0
 24 25  1  0  0  0  0
 26 27  1  0  0  0  0
 26 25  1  1  0  0  0
 26 12  1  0  0  0  0
 27 29  1  0  0  0  0
 27 41  1  6  0  0  0
 27  8  1  0  0  0  0
  1 28  1  0  0  0  0
 28 29  1  0  0  0  0
 30  3  1  0  0  0  0
 31 32  1  0  0  0  0
 31 34  1  0  0  0  0
 33 32  1  0  0  0  0
 33 36  1  0  0  0  0
 34 35  1  0  0  0  0
 37 38  1  0  0  0  0
 37 36  1  0  0  0  0
 39 40  1  0  0  0  0
 39 38  1  0  0  0  0
 40  4  1  0  0  0  0
M  END
> <ID>
SCHEMBL21137308

> <InChIKey>
MHAAWDTYUCXSCZ-DCDHDNFLSA-N

> <MW>
558.763

> <Series_Name>
Series_16

$$$$
SCHEMBL21137310
  Mrv1719007171906192D 0   0.00000     0.00000     0

 35 42  0  0  1  0              1 V2000 
    0.3641   -4.2172    0.0000 O   0  0  0  0  0  0  0  0  0  0  0  0
    1.2310   -3.7609    0.0000 C   0  0  0  0  0  0  0  0  0  0  0  0
    1.4704   -2.9249    0.0000 C   0  0  0  0  0  0  0  0  0  0  0  0
    2.1978   -3.1457    0.0000 N   0  0  0  0  0  0  0  0  0  0  0  0
    2.0324   -3.9809    0.0000 C   0  0  0  0  0  0  0  0  0  0  0  0
    3.6455   -3.1234    0.0000 C   0  0  0  0  0  0  0  0  0  0  0  0
    2.8927   -2.6907    0.0000 C   0  0  0  0  0  0  0  0  0  0  0  0
    2.8891   -1.8173    0.0000 C   0  0  0  0  0  0  0  0  0  0  0  0
    3.6101   -1.3931    0.0000 C   0  0  0  0  0  0  0  0  0  0  0  0
    4.8979   -1.2857    0.0000 C   0  0  0  0  0  0  0  0  0  0  0  0
    5.7053   -1.4550    0.0000 C   0  0  0  0  0  0  0  0  0  0  0  0
    6.1168   -0.7603    0.0000 C   0  0  0  0  0  0  0  0  0  0  0  0
    6.8856   -0.8393    0.0000 C   0  0  0  0  0  0  0  0  0  0  0  0
    7.2536   -1.5690    0.0000 C   0  0  0  0  0  0  0  0  0  0  0  0
    7.8438   -0.9135    0.0000 C   0  0  0  0  0  0  0  0  0  0  0  0
    8.0082   -1.8380    0.0000 C   0  0  1  0  0  0  0  0  0  0  0  0
    8.6724   -1.4128    0.0000 C   0  0  0  0  0  0  0  0  0  0  0  0
    8.6817   -0.5489    0.0000 C   0  0  0  0  0  0  0  0  0  0  0  0
   10.0622   -0.5385    0.0000 C   0  0  0  0  0  0  0  0  0  0  0  0
   10.7626   -0.1150    0.0000 C   0  0  0  0  0  0  0  0  0  0  0  0
   11.4109   -0.5384    0.0000 C   0  0  0  0  0  0  0  0  0  0  0  0
   11.4015   -1.4287    0.0000 N   0  0  0  0  0  0  0  0  0  0  0  0
   10.0606   -1.4124    0.0000 C   0  0  0  0  0  0  0  0  0  0  0  0
   10.7063   -1.8338    0.0000 C   0  0  0  0  0  0  0  0  0  0  0  0
    9.3226   -1.8353    0.0000 C   0  0  0  0  0  0  0  0  0  0  0  0
    7.9999   -2.7247    0.0000 C   0  0  0  0  0  0  0  0  0  0  0  0
    7.2435   -3.0212    0.0000 C   0  0  0  0  0  0  0  0  0  0  0  0
    6.8057   -2.3426    0.0000 C   0  0  0  0  0  0  0  0  0  0  0  0
    6.0179   -2.2450    0.0000 C   0  0  1  0  0  0  0  0  0  0  0  0
    5.6850   -3.0351    0.0000 C   0  0  0  0  0  0  0  0  0  0  0  0
    4.8942   -3.2637    0.0000 C   0  0  0  0  0  0  0  0  0  0  0  0
    4.2701   -2.7074    0.0000 C   0  0  2  0  0  0  0  0  0  0  0  0
    4.2868   -1.8100    0.0000 C   0  0  0  0  0  0  0  0  0  0  0  0
    9.3436   -0.1202    0.0000 C   0  0  0  0  0  0  0  0  0  0  0  0
    5.0140   -2.2390    0.0000 O   0  0  0  0  0  0  0  0  0  0  0  0
  1  2  1  0  0  0  0
  2  3  1  0  0  0  0
  4  3  1  0  0  0  0
  4  5  1  0  0  0  0
  4  7  1  0  0  0  0
  5  2  1  0  0  0  0
  6  7  1  0  0  0  0
 32  6  1  0  0  0  0
  7  8  1  0  0  0  0
  8  9  1  0  0  0  0
  9 33  1  0  0  0  0
 10 11  1  0  0  0  0
 11 12  2  0  0  0  0
 12 13  1  0  0  0  0
 13 14  1  0  0  0  0
 16 14  1  0  0  0  0
 15 14  1  0  0  0  0
 16 17  1  1  0  0  0
 16 26  1  0  0  0  0
 17 18  1  0  0  0  0
 17 25  2  0  0  0  0
 18 34  2  0  0  0  0
 19 20  1  0  0  0  0
 20 21  2  0  0  0  0
 22 21  1  0  0  0  0
 23 19  2  0  0  0  0
 23 24  1  0  0  0  0
 24 22  2  0  0  0  0
 25 23  1  0  0  0  0
 26 27  1  0  0  0  0
 27 28  1  0  0  0  0
 29 28  1  0  0  0  0
 28 14  1  0  0  0  0
 29 35  1  6  0  0  0
 29 30  1  0  0  0  0
 29 11  1  0  0  0  0
 30 31  1  0  0  0  0
 32 31  1  0  0  0  0
 32 33  1  0  0  0  0
 32 35  1  6  0  0  0
 33 10  2  0  0  0  0
 34 19  1  0  0  0  0
M  END
> <ID>
SCHEMBL21137310

> <InChIKey>
CJKJILAYBOLINK-ILRLUZNXSA-N

> <MW>
468.641

> <Series_Name>
Series_16

$$$$
SCHEMBL21137320
  Mrv1719007171906232D 0   0.00000     0.00000     0

 36 39  0  0  0  0              1 V2000 
    2.1487   -0.0139    0.0000 C   0  0  0  0  0  0  0  0  0  0  0  0
    7.2017   -1.1852    0.0000 O   0  0  0  0  0  0  0  0  0  0  0  0
    2.9874   -1.2754    0.0000 Cl  0  0  0  0  0  0  0  0  0  0  0  0
    0.7833   -3.3687    0.0000 F   0  0  0  0  0  0  0  0  0  0  0  0
    7.2641   -3.6320    0.0000 C   0  0  0  0  0  0  0  0  0  0  0  0
    7.9711   -4.0341    0.0000 C   0  0  0  0  0  0  0  0  0  0  0  0
    8.6642   -3.6043    0.0000 C   0  0  0  0  0  0  0  0  0  0  0  0
    1.5110   -3.7707    0.0000 F   0  0  0  0  0  0  0  0  0  0  0  0
    5.8224   -4.4916    0.0000 C   0  0  0  0  0  0  0  0  0  0  0  0
    1.4464   -1.2708    0.0000 C   0  0  0  0  0  0  0  0  0  0  0  0
    0.6931   -0.8872    0.0000 C   0  0  0  0  0  0  0  0  0  0  0  0
    0.0139   -1.3031    0.0000 C   0  0  0  0  0  0  0  0  0  0  0  0
    0.0277   -2.1071    0.0000 C   0  0  0  0  0  0  0  0  0  0  0  0
    0.7532   -2.5184    0.0000 C   0  0  0  0  0  0  0  0  0  0  0  0
    1.4694   -2.0979    0.0000 C   0  0  0  0  0  0  0  0  0  0  0  0
    7.2826   -2.0101    0.0000 C   0  0  0  0  0  0  0  0  0  0  0  0
    2.9019   -2.0563    0.0000 C   0  0  0  0  0  0  0  0  0  0  0  0
    5.7530   -2.0240    0.0000 C   0  0  0  0  0  0  0  0  0  0  0  0
    5.1292   -2.3982    0.0000 C   0  0  0  0  0  0  0  0  0  0  0  0
    3.6459   -3.2901    0.0000 C   0  0  0  0  0  0  0  0  0  0  0  0
    3.6320   -2.4676    0.0000 C   0  0  0  0  0  0  0  0  0  0  0  0
    2.1950   -2.4907    0.0000 C   0  0  0  0  0  0  0  0  0  0  0  0
    2.2181   -3.3040    0.0000 C   0  0  0  0  0  0  0  0  0  0  0  0
    7.9572   -3.2231    0.0000 C   0  0  0  0  0  0  0  0  0  0  0  0
    6.4739   -3.2716    0.0000 C   0  0  0  0  0  0  0  0  0  0  0  0
    5.8224   -3.6598    0.0000 C   0  0  0  0  0  0  0  0  0  0  0  0
    2.9297   -3.7106    0.0000 C   0  0  0  0  0  0  0  0  0  0  0  0
    4.3714   -3.6829    0.0000 C   0  0  0  0  0  0  0  0  0  0  0  0
    4.3945   -4.5100    0.0000 C   0  0  0  0  0  0  0  0  0  0  0  0
    3.6875   -4.9352    0.0000 C   0  0  0  0  0  0  0  0  0  0  0  0
    5.1154   -4.9352    0.0000 O   0  0  0  0  0  0  0  0  0  0  0  0
    2.9528   -4.5608    0.0000 N   0  0  0  0  0  0  0  0  0  0  0  0
    7.9434   -2.4121    0.0000 O   0  0  0  0  0  0  0  0  0  0  0  0
    6.5017   -2.4398    0.0000 N   0  0  0  0  0  0  0  0  0  0  0  0
    5.0877   -3.2855    0.0000 N   0  0  0  0  0  0  0  0  0  0  0  0
    2.1626   -0.8664    0.0000 O   0  0  0  0  0  0  0  0  0  0  0  0
 10 11  1  0  0  0  0
 11 12  2  0  0  0  0
 12 13  1  0  0  0  0
 13 14  2  0  0  0  0
  4 14  1  0  0  0  0
 10 15  2  0  0  0  0
 14 15  1  0  0  0  0
  2 16  2  0  0  0  0
  3 17  1  0  0  0  0
 18 19  1  0  0  0  0
 20 21  1  0  0  0  0
 17 21  2  0  0  0  0
 17 22  1  0  0  0  0
 15 22  1  0  0  0  0
 22 23  2  0  0  0  0
  8 23  1  0  0  0  0
  5 24  1  0  0  0  0
  6 24  1  0  0  0  0
  7 24  1  0  0  0  0
 25 26  1  0  0  0  0
 20 27  2  0  0  0  0
 23 27  1  0  0  0  0
 20 28  1  0  0  0  0
 28 29  2  0  0  0  0
 29 30  1  0  0  0  0
  9 31  1  0  0  0  0
 29 31  1  0  0  0  0
 27 32  1  0  0  0  0
 30 32  2  0  0  0  0
 16 33  1  0  0  0  0
 24 33  1  0  0  0  0
 16 34  1  0  0  0  0
 18 34  1  0  0  0  0
 25 34  1  0  0  0  0
 19 35  1  0  0  0  0
 26 35  1  0  0  0  0
 28 35  1  0  0  0  0
  1 36  1  0  0  0  0
 10 36  1  0  0  0  0
M  END
> <ID>
SCHEMBL21137320

> <InChIKey>
NEILUARSWYBQEN-UHFFFAOYSA-N

> <MW>
519.97

> <Series_Name>
Series_17

$$$$
SCHEMBL21137323
  Mrv1719007171906242D 0   0.00000     0.00000     0

 36 40  0  0  0  0              1 V2000 
    3.4265   -0.0273    0.0000 C   0  0  0  0  0  0  0  0  0  0  0  0
    8.4094   -0.4641    0.0000 O   0  0  0  0  0  0  0  0  0  0  0  0
    4.2525   -0.4847    0.0000 Cl  0  0  0  0  0  0  0  0  0  0  0  0
    9.1329   -2.5529    0.0000 C   0  0  0  0  0  0  0  0  0  0  0  0
    2.7372   -3.0171    0.0000 F   0  0  0  0  0  0  0  0  0  0  0  0
    7.7131   -4.2730    0.0000 O   0  0  0  0  0  0  0  0  0  0  0  0
    6.2797   -5.0784    0.0000 C   0  0  0  0  0  0  0  0  0  0  0  0
    2.7167   -0.4596    0.0000 C   0  0  0  0  0  0  0  0  0  0  0  0
    2.0205   -0.0410    0.0000 C   0  0  0  0  0  0  0  0  0  0  0  0
    1.3241   -0.4368    0.0000 C   0  0  0  0  0  0  0  0  0  0  0  0
    1.2969   -1.3151    0.0000 C   0  0  0  0  0  0  0  0  0  0  0  0
    2.7167   -1.3015    0.0000 C   0  0  0  0  0  0  0  0  0  0  0  0
    8.3502   -1.3061    0.0000 C   0  0  0  0  0  0  0  0  0  0  0  0
    4.1364   -1.3015    0.0000 C   0  0  0  0  0  0  0  0  0  0  0  0
    6.9760   -1.2969    0.0000 C   0  0  0  0  0  0  0  0  0  0  0  0
    6.3070   -1.6928    0.0000 C   0  0  0  0  0  0  0  0  0  0  0  0
    9.1193   -1.7065    0.0000 C   0  0  0  0  0  0  0  0  0  0  0  0
    2.0068   -1.7292    0.0000 C   0  0  0  0  0  0  0  0  0  0  0  0
    3.4265   -1.7155    0.0000 C   0  0  0  0  0  0  0  0  0  0  0  0
    4.8600   -2.5710    0.0000 C   0  0  0  0  0  0  0  0  0  0  0  0
    4.8463   -1.7201    0.0000 C   0  0  0  0  0  0  0  0  0  0  0  0
    3.4265   -2.5710    0.0000 C   0  0  0  0  0  0  0  0  0  0  0  0
    7.6722   -2.5801    0.0000 C   0  0  0  0  0  0  0  0  0  0  0  0
    7.0033   -2.9760    0.0000 C   0  0  0  0  0  0  0  0  0  0  0  0
    1.0375   -2.6484    0.0000 C   0  0  0  0  0  0  0  0  0  0  0  0
    4.1501   -2.9852    0.0000 C   0  0  0  0  0  0  0  0  0  0  0  0
    5.5698   -2.9852    0.0000 C   0  0  0  0  0  0  0  0  0  0  0  0
    5.5698   -3.8270    0.0000 C   0  0  0  0  0  0  0  0  0  0  0  0
    6.9532   -3.8771    0.0000 C   0  0  0  0  0  0  0  0  0  0  0  0
    4.8873   -4.2457    0.0000 C   0  0  0  0  0  0  0  0  0  0  0  0
    1.8362   -2.5801    0.0000 N   0  0  0  0  0  0  0  0  0  0  0  0
    0.4368   -1.8976    0.0000 N   0  0  0  0  0  0  0  0  0  0  0  0
    7.6996   -1.7338    0.0000 N   0  0  0  0  0  0  0  0  0  0  0  0
    4.1501   -3.8566    0.0000 N   0  0  0  0  0  0  0  0  0  0  0  0
    6.2797   -2.5869    0.0000 N   0  0  0  0  0  0  0  0  0  0  0  0
    6.2797   -4.2798    0.0000 N   0  0  0  0  0  0  0  0  0  0  0  0
  1  8  1  0  0  0  0
  8  9  1  0  0  0  0
  9 10  2  0  0  0  0
 10 11  1  0  0  0  0
  8 12  2  0  0  0  0
  2 13  2  0  0  0  0
  3 14  1  0  0  0  0
 15 16  1  0  0  0  0
  4 17  2  0  0  0  0
 13 17  1  0  0  0  0
 12 18  1  0  0  0  0
 11 18  2  0  0  0  0
 12 19  1  0  0  0  0
 14 19  1  0  0  0  0
 20 21  1  0  0  0  0
 14 21  2  0  0  0  0
 19 22  2  0  0  0  0
  5 22  1  0  0  0  0
 23 24  1  0  0  0  0
 22 26  1  0  0  0  0
 20 26  2  0  0  0  0
 20 27  1  0  0  0  0
 27 28  2  0  0  0  0
  6 29  2  0  0  0  0
 28 30  1  0  0  0  0
 18 31  1  0  0  0  0
 25 31  2  0  0  0  0
 11 32  1  0  0  0  0
 25 32  1  0  0  0  0
 13 33  1  0  0  0  0
 15 33  1  0  0  0  0
 23 33  1  0  0  0  0
 26 34  1  0  0  0  0
 30 34  2  0  0  0  0
 16 35  1  0  0  0  0
 24 35  1  0  0  0  0
 27 35  1  0  0  0  0
  7 36  1  0  0  0  0
 28 36  1  0  0  0  0
 29 36  1  0  0  0  0
M  END
> <ID>
SCHEMBL21137323

> <InChIKey>
ZKXNHZKCSPGZIN-UHFFFAOYSA-N

> <MW>
506.97

> <Series_Name>
Series_17

$$$$
SCHEMBL21137331
  Mrv1719007171906242D 0   0.00000     0.00000     0

 33 36  0  0  0  0              1 V2000 
    2.1566   -0.2074    0.0000 F   0  0  0  0  0  0  0  0  0  0  0  0
    7.1403   -0.6014    0.0000 O   0  0  0  0  0  0  0  0  0  0  0  0
    2.9653   -0.6290    0.0000 Cl  0  0  0  0  0  0  0  0  0  0  0  0
    8.5849   -1.3963    0.0000 C   0  0  0  0  0  0  0  0  0  0  0  0
    0.9193   -2.6888    0.0000 O   0  0  0  0  0  0  0  0  0  0  0  0
    6.4422   -4.3201    0.0000 O   0  0  0  0  0  0  0  0  0  0  0  0
    5.0321   -5.1011    0.0000 C   0  0  0  0  0  0  0  0  0  0  0  0
    1.4377   -0.6037    0.0000 C   0  0  0  0  0  0  0  0  0  0  0  0
    0.6912   -0.2074    0.0000 C   0  0  0  0  0  0  0  0  0  0  0  0
    0.0138   -0.6082    0.0000 C   0  0  0  0  0  0  0  0  0  0  0  0
    0.0138   -1.4239    0.0000 C   0  0  0  0  0  0  0  0  0  0  0  0
    0.7235   -1.8340    0.0000 C   0  0  0  0  0  0  0  0  0  0  0  0
    1.4424   -1.4147    0.0000 C   0  0  0  0  0  0  0  0  0  0  0  0
    7.2071   -1.4239    0.0000 C   0  0  0  0  0  0  0  0  0  0  0  0
    2.8662   -1.4147    0.0000 C   0  0  0  0  0  0  0  0  0  0  0  0
    7.8660   -1.8110    0.0000 C   0  0  0  0  0  0  0  0  0  0  0  0
    2.1796   -1.8156    0.0000 C   0  0  0  0  0  0  0  0  0  0  0  0
    3.5851   -2.6451    0.0000 C   0  0  0  0  0  0  0  0  0  0  0  0
    3.4837   -1.7695    0.0000 C   0  0  0  0  0  0  0  0  0  0  0  0
    2.1704   -2.6681    0.0000 C   0  0  0  0  0  0  0  0  0  0  0  0
    2.8755   -3.0782    0.0000 C   0  0  0  0  0  0  0  0  0  0  0  0
    5.6818   -1.4239    0.0000 C   0  0  0  0  0  0  0  0  0  0  0  0
    5.0459   -1.7972    0.0000 C   0  0  0  0  0  0  0  0  0  0  0  0
    6.3592   -2.6958    0.0000 C   0  0  0  0  0  0  0  0  0  0  0  0
    5.7371   -3.0552    0.0000 C   0  0  0  0  0  0  0  0  0  0  0  0
    4.2994   -3.0644    0.0000 C   0  0  0  0  0  0  0  0  0  0  0  0
    4.3132   -3.8893    0.0000 C   0  0  0  0  0  0  0  0  0  0  0  0
    3.5943   -4.3132    0.0000 C   0  0  0  0  0  0  0  0  0  0  0  0
    5.6818   -3.9399    0.0000 C   0  0  0  0  0  0  0  0  0  0  0  0
    5.0113   -2.6750    0.0000 N   0  0  0  0  0  0  0  0  0  0  0  0
    2.8824   -3.9261    0.0000 N   0  0  0  0  0  0  0  0  0  0  0  0
    6.4283   -1.8387    0.0000 N   0  0  0  0  0  0  0  0  0  0  0  0
    5.0182   -4.3270    0.0000 N   0  0  0  0  0  0  0  0  0  0  0  0
  1  8  1  0  0  0  0
  8  9  1  0  0  0  0
  9 10  2  0  0  0  0
 10 11  1  0  0  0  0
 11 12  2  0  0  0  0
  5 12  1  0  0  0  0
  8 13  2  0  0  0  0
 12 13  1  0  0  0  0
  2 14  2  0  0  0  0
  3 15  1  0  0  0  0
  4 16  2  0  0  0  0
 14 16  1  0  0  0  0
 13 17  1  0  0  0  0
 15 17  1  0  0  0  0
 18 19  1  0  0  0  0
 15 19  2  0  0  0  0
 17 20  2  0  0  0  0
 20 21  1  0  0  0  0
 18 21  2  0  0  0  0
 22 23  1  0  0  0  0
 24 25  1  0  0  0  0
 18 26  1  0  0  0  0
 26 27  2  0  0  0  0
 27 28  1  0  0  0  0
  6 29  2  0  0  0  0
 23 30  1  0  0  0  0
 25 30  1  0  0  0  0
 26 30  1  0  0  0  0
 21 31  1  0  0  0  0
 28 31  2  0  0  0  0
 14 32  1  0  0  0  0
 22 32  1  0  0  0  0
 24 32  1  0  0  0  0
  7 33  1  0  0  0  0
 27 33  1  0  0  0  0
 29 33  1  0  0  0  0
M  END
> <ID>
SCHEMBL21137331

> <InChIKey>
QDNCRUMINJQSEU-UHFFFAOYSA-N

> <MW>
468.91

> <Series_Name>
Series_17

$$$$
SCHEMBL21137332
  Mrv1719007171906252D 0   0.00000     0.00000     0

 40 44  0  0  1  0              1 V2000 
    5.0898   -4.3964    0.0000 N   0  0  0  0  0  0  0  0  0  0  0  0
    5.1233   -5.2077    0.0000 C   0  0  0  0  0  0  0  0  0  0  0  0
    3.6819   -4.3920    0.0000 C   0  0  0  0  0  0  0  0  0  0  0  0
    4.4096   -3.9759    0.0000 C   0  0  0  0  0  0  0  0  0  0  0  0
    3.6820   -2.7418    0.0000 C   0  0  0  0  0  0  0  0  0  0  0  0
    4.4012   -3.1531    0.0000 C   0  0  0  0  0  0  0  0  0  0  0  0
    2.9402   -3.9803    0.0000 N   0  0  0  0  0  0  0  0  0  0  0  0
    2.9776   -3.1449    0.0000 C   0  0  0  0  0  0  0  0  0  0  0  0
    2.2518   -2.7420    0.0000 C   0  0  0  0  0  0  0  0  0  0  0  0
    1.4315   -3.0005    0.0000 C   0  0  0  0  0  0  0  0  0  0  0  0
    1.5345   -1.5119    0.0000 C   0  0  0  0  0  0  0  0  0  0  0  0
    2.2560   -1.9187    0.0000 C   0  0  0  0  0  0  0  0  0  0  0  0
    0.8138   -1.9175    0.0000 C   0  0  0  0  0  0  0  0  0  0  0  0
    0.7905   -2.7460    0.0000 O   0  0  0  0  0  0  0  0  0  0  0  0
    0.1101   -0.6775    0.0000 C   0  0  0  0  0  0  0  0  0  0  0  0
    0.8144   -0.2869    0.0000 C   0  0  0  0  0  0  0  0  0  0  0  0
    1.5309   -0.6793    0.0000 C   0  0  0  0  0  0  0  0  0  0  0  0
    2.2467   -0.2635    0.0000 F   0  0  0  0  0  0  0  0  0  0  0  0
    3.0954   -0.6865    0.0000 Cl  0  0  0  0  0  0  0  0  0  0  0  0
    2.9732   -1.5054    0.0000 C   0  0  0  0  0  0  0  0  0  0  0  0
    3.6804   -1.9107    0.0000 C   0  0  0  0  0  0  0  0  0  0  0  0
    5.0898   -2.7460    0.0000 N   0  0  0  0  0  0  0  0  0  0  0  0
    0.1127   -1.5140    0.0000 C   0  0  0  0  0  0  0  0  0  0  0  0
    5.8251   -3.8885    0.0000 C   0  0  0  0  0  0  0  0  0  0  0  0
    1.3591   -2.7599    0.0000 C   0  0  0  0  0  0  0  0  0  0  0  0
    1.3672   -2.5727    0.0000 C   0  0  0  0  0  0  0  0  0  0  0  0
    1.4343   -3.3631    0.0000 C   0  0  0  0  0  0  0  0  0  0  0  0
    6.5428   -2.7402    0.0000 C   0  0  0  0  0  0  0  0  0  0  0  0
    6.5322   -1.9278    0.0000 N   0  0  0  0  0  0  0  0  0  0  0  0
    5.1299   -1.9087    0.0000 C   0  0  0  0  0  0  0  0  0  0  0  0
    5.8345   -1.5004    0.0000 C   0  0  0  0  0  0  0  0  0  0  0  0
    8.7217   -1.5041    0.0000 C   0  0  0  0  0  0  0  0  0  0  0  0
    7.9607   -1.9139    0.0000 O   0  0  0  0  0  0  0  0  0  0  0  0
    8.6856   -0.6727    0.0000 C   0  0  0  0  0  0  0  0  0  0  0  0
    9.4321   -1.9142    0.0000 C   0  0  0  0  0  0  0  0  0  0  0  0
    7.3332   -1.5353    0.0000 C   0  0  0  0  0  0  0  0  0  0  0  0
    7.2395   -0.6796    0.0000 O   0  0  0  0  0  0  0  0  0  0  0  0
    6.5322   -4.3964    0.0000 O   0  0  0  0  0  0  0  0  0  0  0  0
    5.8262   -3.1489    0.0000 C   0  0  1  0  0  0  0  0  0  0  0  0
    9.3856   -1.0960    0.0000 C   0  0  0  0  0  0  0  0  0  0  0  0
  1  2  1  0  0  0  0
  1 24  1  0  0  0  0
  3  4  1  0  0  0  0
  4  1  1  0  0  0  0
  5  6  1  0  0  0  0
  5 21  1  0  0  0  0
  6  4  2  0  0  0  0
  7  8  1  0  0  0  0
  7  3  2  0  0  0  0
  8  5  2  0  0  0  0
  9  8  1  0  0  0  0
  9 12  2  0  0  0  0
 10  9  1  0  0  0  0
 10 27  1  0  0  0  0
 11 12  1  0  0  0  0
 12 20  1  0  0  0  0
 13 11  1  0  0  0  0
 13 14  1  0  0  0  0
 15 16  2  0  0  0  0
 15 23  1  0  0  0  0
 16 17  1  0  0  0  0
 17 11  2  0  0  0  0
 18 17  1  0  0  0  0
 19 20  1  0  0  0  0
 20 21  2  0  0  0  0
 22  6  1  0  0  0  0
 23 13  2  0  0  0  0
 24 38  2  0  0  0  0
 25 14  1  0  0  0  0
 26 10  1  0  0  0  0
 28 29  1  0  0  0  0
 30 31  1  0  0  0  0
 30 22  1  0  0  0  0
 31 29  1  0  0  0  0
 32 33  1  0  0  0  0
 32 34  1  0  0  0  0
 32 35  1  0  0  0  0
 32 40  1  0  0  0  0
 36 29  1  0  0  0  0
 36 33  1  0  0  0  0
 37 36  2  0  0  0  0
 39 24  1  0  0  0  0
 39 28  1  0  0  0  0
 39 22  1  6  0  0  0
M  END
> <ID>
SCHEMBL21137332

> <InChIKey>
QIGXWCWJYOYDJZ-OAQYLSRUSA-N

> <MW>
569.07

> <Series_Name>
Series_17

$$$$
SCHEMBL21137337
  Mrv1719007171906262D 0   0.00000     0.00000     0

 36 39  0  0  0  0              1 V2000 
    2.8693   -0.2420    0.0000 F   0  0  0  0  0  0  0  0  0  0  0  0
    8.9327   -0.7052    0.0000 C   0  0  0  0  0  0  0  0  0  0  0  0
    7.9094   -0.6222    0.0000 O   0  0  0  0  0  0  0  0  0  0  0  0
    3.6920   -0.6568    0.0000 Cl  0  0  0  0  0  0  0  0  0  0  0  0
   10.0665   -0.9956    0.0000 C   0  0  0  0  0  0  0  0  0  0  0  0
    9.7761   -2.1018    0.0000 C   0  0  0  0  0  0  0  0  0  0  0  0
    0.4771   -3.1112    0.0000 O   0  0  0  0  0  0  0  0  0  0  0  0
    2.1710   -3.1043    0.0000 F   0  0  0  0  0  0  0  0  0  0  0  0
    5.7661   -5.0747    0.0000 C   0  0  0  0  0  0  0  0  0  0  0  0
    2.1433   -0.6315    0.0000 C   0  0  0  0  0  0  0  0  0  0  0  0
    1.3828   -0.2489    0.0000 C   0  0  0  0  0  0  0  0  0  0  0  0
    0.7052   -0.6499    0.0000 C   0  0  0  0  0  0  0  0  0  0  0  0
    0.7052   -1.4519    0.0000 C   0  0  0  0  0  0  0  0  0  0  0  0
    1.4243   -1.8621    0.0000 C   0  0  0  0  0  0  0  0  0  0  0  0
    2.1433   -1.4565    0.0000 C   0  0  0  0  0  0  0  0  0  0  0  0
    9.3475   -1.4035    0.0000 C   0  0  0  0  0  0  0  0  0  0  0  0
    7.8357   -1.4381    0.0000 C   0  0  0  0  0  0  0  0  0  0  0  0
    3.5814   -1.4427    0.0000 C   0  0  0  0  0  0  0  0  0  0  0  0
    6.4298   -1.4381    0.0000 C   0  0  0  0  0  0  0  0  0  0  0  0
    5.7799   -1.8114    0.0000 C   0  0  0  0  0  0  0  0  0  0  0  0
    2.8623   -1.8483    0.0000 C   0  0  0  0  0  0  0  0  0  0  0  0
    4.3143   -2.6595    0.0000 C   0  0  0  0  0  0  0  0  0  0  0  0
    4.3143   -1.8529    0.0000 C   0  0  0  0  0  0  0  0  0  0  0  0
    2.8762   -2.6733    0.0000 C   0  0  0  0  0  0  0  0  0  0  0  0
    1.4381   -2.6688    0.0000 C   0  0  0  0  0  0  0  0  0  0  0  0
    7.1350   -2.6825    0.0000 C   0  0  0  0  0  0  0  0  0  0  0  0
    6.4990   -3.0421    0.0000 C   0  0  0  0  0  0  0  0  0  0  0  0
    3.5952   -3.0789    0.0000 C   0  0  0  0  0  0  0  0  0  0  0  0
    5.0332   -3.0651    0.0000 C   0  0  0  0  0  0  0  0  0  0  0  0
    5.0471   -3.8763    0.0000 C   0  0  0  0  0  0  0  0  0  0  0  0
    4.3557   -4.2728    0.0000 C   0  0  0  0  0  0  0  0  0  0  0  0
    5.7523   -2.6757    0.0000 N   0  0  0  0  0  0  0  0  0  0  0  0
    3.5952   -3.9063    0.0000 N   0  0  0  0  0  0  0  0  0  0  0  0
    7.1904   -1.8460    0.0000 N   0  0  0  0  0  0  0  0  0  0  0  0
    6.1464   -4.0584    0.0000 N   0  0  0  0  0  0  0  0  0  0  0  0
    8.6284   -1.8391    0.0000 O   0  0  0  0  0  0  0  0  0  0  0  0
  1 10  1  0  0  0  0
 10 11  2  0  0  0  0
 11 12  1  0  0  0  0
 12 13  2  0  0  0  0
 13 14  1  0  0  0  0
 10 15  1  0  0  0  0
 14 15  2  0  0  0  0
  2 16  1  0  0  0  0
  5 16  1  0  0  0  0
  6 16  1  0  0  0  0
  3 17  2  0  0  0  0
  4 18  1  0  0  0  0
 19 20  1  0  0  0  0
 18 21  1  0  0  0  0
 15 21  1  0  0  0  0
 22 23  1  0  0  0  0
 18 23  2  0  0  0  0
 21 24  2  0  0  0  0
  8 24  1  0  0  0  0
 14 25  1  0  0  0  0
  7 25  1  0  0  0  0
 26 27  1  0  0  0  0
 22 28  2  0  0  0  0
 24 28  1  0  0  0  0
 22 29  1  0  0  0  0
 29 30  2  0  0  0  0
 30 31  1  0  0  0  0
 20 32  1  0  0  0  0
 27 32  1  0  0  0  0
 29 32  1  0  0  0  0
 28 33  1  0  0  0  0
 31 33  2  0  0  0  0
 17 34  1  0  0  0  0
 19 34  1  0  0  0  0
 26 34  1  0  0  0  0
  9 35  1  0  0  0  0
 30 35  1  0  0  0  0
 16 36  1  0  0  0  0
 17 36  1  0  0  0  0
M  END
> <ID>
SCHEMBL21137337

> <InChIKey>
FWBKHXLDYHGRCA-UHFFFAOYSA-N

> <MW>
518.99

> <Series_Name>
Series_17

$$$$
SCHEMBL21137343
  Mrv1719007171906282D 0   0.00000     0.00000     0

 36 40  0  0  1  0              1 V2000 
    5.0814   -3.4498    0.0000 C   0  0  0  0  0  0  0  0  0  0  0  0
    4.5453   -4.0765    0.0000 C   0  0  0  0  0  0  0  0  0  0  0  0
    4.8209   -4.8490    0.0000 N   0  0  0  0  0  0  0  0  0  0  0  0
    3.6970   -3.9510    0.0000 C   0  0  0  0  0  0  0  0  0  0  0  0
    3.1533   -4.5828    0.0000 F   0  0  0  0  0  0  0  0  0  0  0  0
    2.5416   -3.0528    0.0000 C   0  0  0  0  0  0  0  0  0  0  0  0
    3.4008   -3.1954    0.0000 C   0  0  0  0  0  0  0  0  0  0  0  0
    2.0220   -3.7032    0.0000 C   0  0  0  0  0  0  0  0  0  0  0  0
    2.1274   -4.5025    0.0000 C   0  0  0  0  0  0  0  0  0  0  0  0
    1.3734   -4.8770    0.0000 N   0  0  0  0  0  0  0  0  0  0  0  0
    1.1889   -3.5810    0.0000 C   0  0  0  0  0  0  0  0  0  0  0  0
    0.5116   -4.3025    0.0000 N   0  0  0  0  0  0  0  0  0  0  0  0
    0.8748   -2.8138    0.0000 C   0  0  0  0  0  0  0  0  0  0  0  0
    1.4068   -2.1815    0.0000 C   0  0  0  0  0  0  0  0  0  0  0  0
    2.2486   -2.3042    0.0000 C   0  0  0  0  0  0  0  0  0  0  0  0
    2.7901   -1.6818    0.0000 C   0  0  0  0  0  0  0  0  0  0  0  0
    3.9238   -2.5726    0.0000 C   0  0  0  0  0  0  0  0  0  0  0  0
    3.4434   -1.8149    0.0000 Cl  0  0  0  0  0  0  0  0  0  0  0  0
    4.7722   -2.6985    0.0000 C   0  0  0  0  0  0  0  0  0  0  0  0
    5.9242   -3.5761    0.0000 C   0  0  0  0  0  0  0  0  0  0  0  0
    6.4327   -2.9571    0.0000 N   0  0  0  0  0  0  0  0  0  0  0  0
    6.2104   -4.3348    0.0000 C   0  0  0  0  0  0  0  0  0  0  0  0
    7.0353   -4.4707    0.0000 N   0  0  0  0  0  0  0  0  0  0  0  0
    5.6863   -4.9716    0.0000 C   0  0  0  0  0  0  0  0  0  0  0  0
    7.5866   -3.8157    0.0000 C   0  0  0  0  0  0  0  0  0  0  0  0
    8.4227   -3.9661    0.0000 O   0  0  0  0  0  0  0  0  0  0  0  0
    7.8166   -2.4663    0.0000 C   0  0  0  0  0  0  0  0  0  0  0  0
    7.4977   -1.6958    0.0000 N   0  0  0  0  0  0  0  0  0  0  0  0
    7.2862   -3.0707    0.0000 C   0  0  1  0  0  0  0  0  0  0  0  0
    6.6847   -1.5556    0.0000 C   0  0  0  0  0  0  0  0  0  0  0  0
    6.1624   -2.1926    0.0000 C   0  0  0  0  0  0  0  0  0  0  0  0
    7.7500   -0.2944    0.0000 O   0  0  0  0  0  0  0  0  0  0  0  0
    8.0001   -1.0894    0.0000 C   0  0  0  0  0  0  0  0  0  0  0  0
    8.9218   -1.1574    0.0000 C   0  0  0  0  0  0  0  0  0  0  0  0
    9.4513   -0.5396    0.0000 C   0  0  0  0  0  0  0  0  0  0  0  0
    7.3649   -5.2248    0.0000 C   0  0  0  0  0  0  0  0  0  0  0  0
  1  2  1  0  0  0  0
  1 20  1  0  0  0  0
  2  3  1  0  0  0  0
  3 24  2  0  0  0  0
  4  2  2  0  0  0  0
  4  7  1  0  0  0  0
  5  4  1  0  0  0  0
  6  7  1  0  0  0  0
  6  8  1  0  0  0  0
  7 17  2  0  0  0  0
  8  9  1  0  0  0  0
 10  9  2  0  0  0  0
 11  8  2  0  0  0  0
 11 13  1  0  0  0  0
 12 11  1  0  0  0  0
 13 14  2  0  0  0  0
 14 15  1  0  0  0  0
 15  6  2  0  0  0  0
 16 15  1  0  0  0  0
 17 18  1  0  0  0  0
 17 19  1  0  0  0  0
 19  1  2  0  0  0  0
 20 22  2  0  0  0  0
 21 20  1  0  0  0  0
 22 23  1  0  0  0  0
 23 25  1  0  0  0  0
 23 36  1  0  0  0  0
 24 22  1  0  0  0  0
 25 26  2  0  0  0  0
 27 28  1  0  0  0  0
 29 27  1  0  0  0  0
 29 25  1  0  0  0  0
 29 21  1  6  0  0  0
 30 28  1  0  0  0  0
 30 31  1  0  0  0  0
 31 21  1  0  0  0  0
 32 33  2  0  0  0  0
 33 34  1  0  0  0  0
 33 28  1  0  0  0  0
 34 35  2  0  0  0  0
M  END
> <ID>
SCHEMBL21137343

> <InChIKey>
DFKYNNSNYRIJJR-LJQANCHMSA-N

> <MW>
506.97

> <Series_Name>
Series_17

$$$$
SCHEMBL21137346
  Mrv1719007171906282D 0   0.00000     0.00000     0

 29 32  0  0  0  0              1 V2000 
    2.2248   -0.2487    0.0000 F   0  0  0  0  0  0  0  0  0  0  0  0
    3.0401   -0.6771    0.0000 Cl  0  0  0  0  0  0  0  0  0  0  0  0
    1.4648   -3.1092    0.0000 C   0  0  0  0  0  0  0  0  0  0  0  0
    0.0277   -3.0954    0.0000 C   0  0  0  0  0  0  0  0  0  0  0  0
    5.7624   -3.9798    0.0000 C   0  0  0  0  0  0  0  0  0  0  0  0
    1.4924   -0.6311    0.0000 C   0  0  0  0  0  0  0  0  0  0  0  0
    0.7601   -0.2211    0.0000 C   0  0  0  0  0  0  0  0  0  0  0  0
    0.0553   -0.6357    0.0000 C   0  0  0  0  0  0  0  0  0  0  0  0
    0.0415   -1.4233    0.0000 C   0  0  0  0  0  0  0  0  0  0  0  0
    0.7601   -1.8609    0.0000 C   0  0  0  0  0  0  0  0  0  0  0  0
    1.4786   -1.4556    0.0000 C   0  0  0  0  0  0  0  0  0  0  0  0
    2.9158   -1.4694    0.0000 C   0  0  0  0  0  0  0  0  0  0  0  0
    2.1972   -1.8747    0.0000 C   0  0  0  0  0  0  0  0  0  0  0  0
    3.6205   -2.7131    0.0000 C   0  0  0  0  0  0  0  0  0  0  0  0
    3.6343   -1.8932    0.0000 C   0  0  0  0  0  0  0  0  0  0  0  0
    5.7762   -1.5062    0.0000 C   0  0  0  0  0  0  0  0  0  0  0  0
    5.1267   -1.8655    0.0000 C   0  0  0  0  0  0  0  0  0  0  0  0
    2.1834   -2.6992    0.0000 C   0  0  0  0  0  0  0  0  0  0  0  0
    6.3981   -2.8052    0.0000 C   0  0  0  0  0  0  0  0  0  0  0  0
    5.8039   -3.1368    0.0000 C   0  0  0  0  0  0  0  0  0  0  0  0
    2.9019   -3.1184    0.0000 C   0  0  0  0  0  0  0  0  0  0  0  0
    4.3391   -3.1322    0.0000 C   0  0  0  0  0  0  0  0  0  0  0  0
    4.3253   -3.9567    0.0000 C   0  0  0  0  0  0  0  0  0  0  0  0
    3.6343   -4.3529    0.0000 C   0  0  0  0  0  0  0  0  0  0  0  0
    2.8881   -3.9728    0.0000 N   0  0  0  0  0  0  0  0  0  0  0  0
    6.7435   -1.9415    0.0000 N   0  0  0  0  0  0  0  0  0  0  0  0
    5.0576   -2.7568    0.0000 N   0  0  0  0  0  0  0  0  0  0  0  0
    5.0438   -4.4082    0.0000 O   0  0  0  0  0  0  0  0  0  0  0  0
    0.7531   -2.7153    0.0000 O   0  0  0  0  0  0  0  0  0  0  0  0
  1  6  1  0  0  0  0
  6  7  1  0  0  0  0
  7  8  2  0  0  0  0
  8  9  1  0  0  0  0
  9 10  2  0  0  0  0
  6 11  2  0  0  0  0
 10 11  1  0  0  0  0
  2 12  1  0  0  0  0
 11 13  1  0  0  0  0
 12 13  1  0  0  0  0
 14 15  1  0  0  0  0
 12 15  2  0  0  0  0
 16 17  1  0  0  0  0
 13 18  2  0  0  0  0
  3 18  1  0  0  0  0
 19 20  1  0  0  0  0
 18 21  1  0  0  0  0
 14 21  2  0  0  0  0
 14 22  1  0  0  0  0
 22 23  2  0  0  0  0
 23 24  1  0  0  0  0
 21 25  1  0  0  0  0
 24 25  2  0  0  0  0
 16 26  1  0  0  0  0
 19 26  1  0  0  0  0
 17 27  1  0  0  0  0
 20 27  1  0  0  0  0
 22 27  1  0  0  0  0
  5 28  1  0  0  0  0
 23 28  1  0  0  0  0
  4 29  1  0  0  0  0
 10 29  1  0  0  0  0
M  END
> <ID>
SCHEMBL21137346

> <InChIKey>
WVSSCYDCDIYLQV-UHFFFAOYSA-N

> <MW>
415.89

> <Series_Name>
Series_17

$$$$
SCHEMBL21137347
  Mrv1719007171906292D 0   0.00000     0.00000     0

 35 39  0  0  0  0              1 V2000 
    7.6613   -0.2071    0.0000 C   0  0  0  0  0  0  0  0  0  0  0  0
    9.2625   -0.7316    0.0000 C   0  0  0  0  0  0  0  0  0  0  0  0
    2.5744   -0.7593    0.0000 F   0  0  0  0  0  0  0  0  0  0  0  0
    3.1956   -1.0284    0.0000 Cl  0  0  0  0  0  0  0  0  0  0  0  0
    6.8744   -3.6857    0.0000 C   0  0  0  0  0  0  0  0  0  0  0  0
    7.7671   -1.0307    0.0000 C   0  0  0  0  0  0  0  0  0  0  0  0
    8.6414   -1.2562    0.0000 C   0  0  0  0  0  0  0  0  0  0  0  0
    1.9326   -1.2930    0.0000 C   0  0  0  0  0  0  0  0  0  0  0  0
    1.0353   -1.1043    0.0000 C   0  0  0  0  0  0  0  0  0  0  0  0
    0.5107   -1.5598    0.0000 C   0  0  0  0  0  0  0  0  0  0  0  0
    0.6488   -2.3651    0.0000 C   0  0  0  0  0  0  0  0  0  0  0  0
    6.3775   -1.2838    0.0000 C   0  0  0  0  0  0  0  0  0  0  0  0
    5.8529   -1.7256    0.0000 C   0  0  0  0  0  0  0  0  0  0  0  0
    2.0844   -2.0890    0.0000 C   0  0  0  0  0  0  0  0  0  0  0  0
    3.5200   -1.8130    0.0000 C   0  0  0  0  0  0  0  0  0  0  0  0
    4.4863   -2.8759    0.0000 C   0  0  0  0  0  0  0  0  0  0  0  0
    4.3345   -2.0982    0.0000 C   0  0  0  0  0  0  0  0  0  0  0  0
    2.8989   -2.3559    0.0000 C   0  0  0  0  0  0  0  0  0  0  0  0
    7.3437   -2.3467    0.0000 C   0  0  0  0  0  0  0  0  0  0  0  0
    6.7502   -2.8575    0.0000 C   0  0  0  0  0  0  0  0  0  0  0  0
    1.4632   -2.6319    0.0000 C   0  0  0  0  0  0  0  0  0  0  0  0
    0.0414   -2.8851    0.0000 C   0  0  0  0  0  0  0  0  0  0  0  0
    0.1933   -3.6995    0.0000 C   0  0  0  0  0  0  0  0  0  0  0  0
    3.0507   -3.1336    0.0000 C   0  0  0  0  0  0  0  0  0  0  0  0
    3.8559   -3.4188    0.0000 C   0  0  0  0  0  0  0  0  0  0  0  0
    5.2870   -3.1427    0.0000 C   0  0  0  0  0  0  0  0  0  0  0  0
    5.4388   -3.9525    0.0000 C   0  0  0  0  0  0  0  0  0  0  0  0
    4.8314   -4.4725    0.0000 C   0  0  0  0  0  0  0  0  0  0  0  0
    1.6081   -3.4188    0.0000 C   0  0  0  0  0  0  0  0  0  0  0  0
    2.4226   -3.6995    0.0000 O   0  0  0  0  0  0  0  0  0  0  0  0
    4.0170   -4.2309    0.0000 N   0  0  0  0  0  0  0  0  0  0  0  0
    5.9219   -2.6158    0.0000 N   0  0  0  0  0  0  0  0  0  0  0  0
    0.9822   -3.9699    0.0000 N   0  0  0  0  0  0  0  0  0  0  0  0
    7.1919   -1.5460    0.0000 N   0  0  0  0  0  0  0  0  0  0  0  0
    6.2463   -4.2172    0.0000 C   0  0  0  0  0  0  0  0  0  0  0  0
  1  6  2  0  0  0  0
  2  7  2  0  0  0  0
  6  7  1  0  0  0  0
  3  8  1  0  0  0  0
  8  9  2  0  0  0  0
  9 10  1  0  0  0  0
 10 11  2  0  0  0  0
 12 13  1  0  0  0  0
  8 14  1  0  0  0  0
  4 15  1  0  0  0  0
 16 17  1  0  0  0  0
 15 17  2  0  0  0  0
 15 18  1  0  0  0  0
 14 18  1  0  0  0  0
 19 20  1  0  0  0  0
 14 21  2  0  0  0  0
 11 21  1  0  0  0  0
 11 22  1  0  0  0  0
 22 23  2  0  0  0  0
 18 24  2  0  0  0  0
 24 25  1  0  0  0  0
 16 25  2  0  0  0  0
 16 26  1  0  0  0  0
 26 27  2  0  0  0  0
 27 28  1  0  0  0  0
 21 29  1  0  0  0  0
 29 30  2  0  0  0  0
 25 31  1  0  0  0  0
 28 31  2  0  0  0  0
 13 32  1  0  0  0  0
 20 32  1  0  0  0  0
 26 32  1  0  0  0  0
 23 33  1  0  0  0  0
 29 33  1  0  0  0  0
  6 34  1  0  0  0  0
 12 34  1  0  0  0  0
 19 34  1  0  0  0  0
  5 35  1  0  0  0  0
 27 35  1  0  0  0  0
M  END
> <ID>
SCHEMBL21137347

> <InChIKey>
XMKHJEKLHNBYFB-UHFFFAOYSA-N

> <MW>
488.99

> <Series_Name>
Series_17

$$$$
SCHEMBL21137350
  Mrv1719007171906292D 0   0.00000     0.00000     0

 34 37  0  0  0  0              1 V2000 
    8.0311   -1.9596    0.0000 C   0  0  0  0  0  0  0  0  0  0  0  0
    1.7933   -1.0574    0.0000 O   0  0  0  0  0  0  0  0  0  0  0  0
    3.0338   -1.3957    0.0000 Cl  0  0  0  0  0  0  0  0  0  0  0  0
    1.1378   -3.9754    0.0000 C   0  0  0  0  0  0  0  0  0  0  0  0
    1.9554   -4.1939    0.0000 F   0  0  0  0  0  0  0  0  0  0  0  0
    6.2967   -3.7573    0.0000 C   0  0  0  0  0  0  0  0  0  0  0  0
    7.7915   -1.1702    0.0000 C   0  0  0  0  0  0  0  0  0  0  0  0
    1.2412   -1.7904    0.0000 C   0  0  0  0  0  0  0  0  0  0  0  0
    5.6065   -1.3816    0.0000 C   0  0  0  0  0  0  0  0  0  0  0  0
    5.0426   -1.9737    0.0000 C   0  0  0  0  0  0  0  0  0  0  0  0
    0.4330   -1.6071    0.0000 C   0  0  0  0  0  0  0  0  0  0  0  0
   -0.1308   -2.1992    0.0000 C   0  0  0  0  0  0  0  0  0  0  0  0
    0.1229   -3.0028    0.0000 C   0  0  0  0  0  0  0  0  0  0  0  0
    0.9029   -3.1860    0.0000 C   0  0  0  0  0  0  0  0  0  0  0  0
    2.8577   -2.1898    0.0000 C   0  0  0  0  0  0  0  0  0  0  0  0
    1.4715   -2.5940    0.0000 C   0  0  0  0  0  0  0  0  0  0  0  0
    6.6355   -2.3825    0.0000 C   0  0  0  0  0  0  0  0  0  0  0  0
    6.0858   -2.9604    0.0000 C   0  0  0  0  0  0  0  0  0  0  0  0
    2.2703   -2.7772    0.0000 C   0  0  0  0  0  0  0  0  0  0  0  0
    2.5052   -3.5713    0.0000 C   0  0  0  0  0  0  0  0  0  0  0  0
    3.8867   -3.1766    0.0000 C   0  0  0  0  0  0  0  0  0  0  0  0
    3.6470   -2.3825    0.0000 C   0  0  0  0  0  0  0  0  0  0  0  0
    4.6949   -3.3552    0.0000 C   0  0  0  0  0  0  0  0  0  0  0  0
    4.9252   -4.1587    0.0000 C   0  0  0  0  0  0  0  0  0  0  0  0
    3.3135   -3.7640    0.0000 C   0  0  0  0  0  0  0  0  0  0  0  0
    4.3660   -4.7507    0.0000 C   0  0  0  0  0  0  0  0  0  0  0  0
    6.9809   -0.9963    0.0000 C   0  0  0  0  0  0  0  0  0  0  0  0
    6.7554   -0.2116    0.0000 O   0  0  0  0  0  0  0  0  0  0  0  0
    5.2682   -2.7913    0.0000 N   0  0  0  0  0  0  0  0  0  0  0  0
    3.5484   -4.5886    0.0000 N   0  0  0  0  0  0  0  0  0  0  0  0
    6.4100   -1.6001    0.0000 N   0  0  0  0  0  0  0  0  0  0  0  0
    5.7268   -4.3539    0.0000 N   0  0  0  0  0  0  0  0  0  0  0  0
    6.2146   -4.7788    0.0000 N   0  0  0  0  0  0  0  0  0  0  0  0
    6.8265   -4.5689    0.0000 O   0  0  0  0  0  0  0  0  0  0  0  0
  1  7  2  0  0  0  0
  2  8  1  0  0  0  0
  9 10  1  0  0  0  0
  8 11  1  0  0  0  0
 11 12  2  0  0  0  0
 12 13  1  0  0  0  0
 13 14  2  0  0  0  0
  4 14  1  0  0  0  0
  3 15  1  0  0  0  0
  8 16  2  0  0  0  0
 14 16  1  0  0  0  0
 17 18  1  0  0  0  0
 15 19  1  0  0  0  0
 16 19  1  0  0  0  0
 19 20  2  0  0  0  0
  5 20  1  0  0  0  0
 21 22  1  0  0  0  0
 15 22  2  0  0  0  0
 21 23  1  0  0  0  0
 23 24  2  0  0  0  0
 21 25  2  0  0  0  0
 20 25  1  0  0  0  0
 24 26  1  0  0  0  0
  7 27  1  0  0  0  0
 27 28  2  0  0  0  0
 10 29  1  0  0  0  0
 18 29  1  0  0  0  0
 23 29  1  0  0  0  0
 25 30  1  0  0  0  0
 26 30  2  0  0  0  0
 24 32  1  0  0  0  0
  9 31  1  0  0  0  0
 17 31  1  0  0  0  0
 27 31  1  0  0  0  0
  6 32  1  0  0  0  0
 32 33  1  0  0  0  0
 33 34  2  0  0  0  0
M  END
> <ID>
SCHEMBL21137350

> <InChIKey>
ZGUUJKSXYFHDBJ-UHFFFAOYSA-N

> <MW>
483.93

> <Series_Name>
Series_17

$$$$
SCHEMBL21137351
  Mrv1719007171906292D 0   0.00000     0.00000     0

 36 39  0  0  0  0              1 V2000 
    3.5507   -0.0421    0.0000 C   0  0  0  0  0  0  0  0  0  0  0  0
    8.7294   -0.4912    0.0000 O   0  0  0  0  0  0  0  0  0  0  0  0
    4.4138   -0.4842    0.0000 Cl  0  0  0  0  0  0  0  0  0  0  0  0
   10.2030   -1.2912    0.0000 C   0  0  0  0  0  0  0  0  0  0  0  0
    0.9964   -2.4841    0.0000 C   0  0  0  0  0  0  0  0  0  0  0  0
    2.8209   -2.9191    0.0000 F   0  0  0  0  0  0  0  0  0  0  0  0
    7.2418   -3.7332    0.0000 C   0  0  0  0  0  0  0  0  0  0  0  0
    2.8209   -0.4444    0.0000 C   0  0  0  0  0  0  0  0  0  0  0  0
    1.9508   -0.0982    0.0000 C   0  0  0  0  0  0  0  0  0  0  0  0
    1.3473   -0.4491    0.0000 C   0  0  0  0  0  0  0  0  0  0  0  0
    1.3520   -1.2538    0.0000 C   0  0  0  0  0  0  0  0  0  0  0  0
    2.8209   -1.2678    0.0000 C   0  0  0  0  0  0  0  0  0  0  0  0
    8.7902   -1.3052    0.0000 C   0  0  0  0  0  0  0  0  0  0  0  0
    4.2946   -1.2678    0.0000 C   0  0  0  0  0  0  0  0  0  0  0  0
    2.0584   -1.6748    0.0000 C   0  0  0  0  0  0  0  0  0  0  0  0
    3.5507   -1.6795    0.0000 C   0  0  0  0  0  0  0  0  0  0  0  0
    5.0243   -1.6841    0.0000 C   0  0  0  0  0  0  0  0  0  0  0  0
    5.0243   -2.4887    0.0000 C   0  0  0  0  0  0  0  0  0  0  0  0
    7.2277   -1.2912    0.0000 C   0  0  0  0  0  0  0  0  0  0  0  0
    6.5541   -1.6561    0.0000 C   0  0  0  0  0  0  0  0  0  0  0  0
    9.4873   -1.6841    0.0000 C   0  0  0  0  0  0  0  0  0  0  0  0
    3.5507   -2.4887    0.0000 C   0  0  0  0  0  0  0  0  0  0  0  0
    7.8593   -2.5823    0.0000 C   0  0  0  0  0  0  0  0  0  0  0  0
    7.2698   -2.9051    0.0000 C   0  0  0  0  0  0  0  0  0  0  0  0
    4.2805   -2.9004    0.0000 C   0  0  0  0  0  0  0  0  0  0  0  0
    5.7682   -2.9145    0.0000 C   0  0  0  0  0  0  0  0  0  0  0  0
    5.7541   -3.7238    0.0000 C   0  0  0  0  0  0  0  0  0  0  0  0
    5.0384   -4.1261    0.0000 C   0  0  0  0  0  0  0  0  0  0  0  0
    1.1228   -2.5403    0.0000 C   0  0  0  0  0  0  0  0  0  0  0  0
    0.6105   -3.2841    0.0000 O   0  0  0  0  0  0  0  0  0  0  0  0
    6.4979   -2.5262    0.0000 N   0  0  0  0  0  0  0  0  0  0  0  0
    4.2805   -3.7472    0.0000 N   0  0  0  0  0  0  0  0  0  0  0  0
    0.4491   -1.8245    0.0000 N   0  0  0  0  0  0  0  0  0  0  0  0
    7.9786   -1.7122    0.0000 N   0  0  0  0  0  0  0  0  0  0  0  0
    1.8947   -2.4911    0.0000 O   0  0  0  0  0  0  0  0  0  0  0  0
    6.4979   -4.1612    0.0000 O   0  0  0  0  0  0  0  0  0  0  0  0
  1  8  1  0  0  0  0
  8  9  2  0  0  0  0
  9 10  1  0  0  0  0
 10 11  2  0  0  0  0
  8 12  1  0  0  0  0
  2 13  2  0  0  0  0
  3 14  1  0  0  0  0
 11 15  1  0  0  0  0
 12 15  2  0  0  0  0
 12 16  1  0  0  0  0
 14 16  2  0  0  0  0
 14 17  1  0  0  0  0
 17 18  2  0  0  0  0
 19 20  1  0  0  0  0
  4 21  2  0  0  0  0
 13 21  1  0  0  0  0
 16 22  1  0  0  0  0
  6 22  1  0  0  0  0
 23 24  1  0  0  0  0
 22 25  2  0  0  0  0
 18 25  1  0  0  0  0
 18 26  1  0  0  0  0
 26 27  2  0  0  0  0
 27 28  1  0  0  0  0
 29 30  2  0  0  0  0
 20 31  1  0  0  0  0
 24 31  1  0  0  0  0
 26 31  1  0  0  0  0
 25 32  1  0  0  0  0
 28 32  2  0  0  0  0
  5 33  1  0  0  0  0
 11 33  1  0  0  0  0
 13 34  1  0  0  0  0
 19 34  1  0  0  0  0
 23 34  1  0  0  0  0
 15 35  1  0  0  0  0
 29 35  1  0  0  0  0
  7 36  1  0  0  0  0
 27 36  1  0  0  0  0
M  END
> <ID>
SCHEMBL21137351

> <InChIKey>
WQELTXGZPVVRFI-UHFFFAOYSA-N

> <MW>
512.97

> <Series_Name>
Series_17

$$$$
SCHEMBL21137352
  Mrv1719007171906312D 0   0.00000     0.00000     0

 42 47  0  0  0  0              1 V2000 
    9.8053   -0.2082    0.0000 O   0  0  0  0  0  0  0  0  0  0  0  0
    4.8021   -0.9160    0.0000 C   0  0  0  0  0  0  0  0  0  0  0  0
    5.4335   -1.1866    0.0000 Cl  0  0  0  0  0  0  0  0  0  0  0  0
   11.7830   -2.2622    0.0000 C   0  0  0  0  0  0  0  0  0  0  0  0
   11.1585   -2.8313    0.0000 C   0  0  0  0  0  0  0  0  0  0  0  0
   10.3674   -2.5953    0.0000 C   0  0  0  0  0  0  0  0  0  0  0  0
    9.1461   -3.7334    0.0000 C   0  0  0  0  0  0  0  0  0  0  0  0
    9.9326   -1.0270    0.0000 C   0  0  0  0  0  0  0  0  0  0  0  0
    4.1960   -1.4712    0.0000 C   0  0  0  0  0  0  0  0  0  0  0  0
    4.3857   -2.2807    0.0000 C   0  0  0  0  0  0  0  0  0  0  0  0
    3.4003   -1.2491    0.0000 C   0  0  0  0  0  0  0  0  0  0  0  0
    2.8174   -1.9014    0.0000 C   0  0  0  0  0  0  0  0  0  0  0  0
    2.9932   -2.6092    0.0000 C   0  0  0  0  0  0  0  0  0  0  0  0
    8.5909   -1.3184    0.0000 C   0  0  0  0  0  0  0  0  0  0  0  0
    7.9941   -1.8736    0.0000 C   0  0  0  0  0  0  0  0  0  0  0  0
    5.7875   -1.9615    0.0000 C   0  0  0  0  0  0  0  0  0  0  0  0
   10.9850   -2.0436    0.0000 C   0  0  0  0  0  0  0  0  0  0  0  0
    9.5763   -2.3455    0.0000 C   0  0  0  0  0  0  0  0  0  0  0  0
    8.9795   -2.9145    0.0000 C   0  0  0  0  0  0  0  0  0  0  0  0
    5.1814   -2.5120    0.0000 C   0  0  0  0  0  0  0  0  0  0  0  0
    5.3572   -3.2892    0.0000 C   0  0  0  0  0  0  0  0  0  0  0  0
    6.1668   -3.5622    0.0000 C   0  0  0  0  0  0  0  0  0  0  0  0
    6.7728   -3.0025    0.0000 C   0  0  0  0  0  0  0  0  0  0  0  0
    6.5924   -2.2067    0.0000 C   0  0  0  0  0  0  0  0  0  0  0  0
    3.7797   -2.8405    0.0000 C   0  0  0  0  0  0  0  0  0  0  0  0
    1.6747   -3.2939    0.0000 C   0  0  0  0  0  0  0  0  0  0  0  0
    1.2491   -2.5953    0.0000 C   0  0  0  0  0  0  0  0  0  0  0  0
    0.4025   -2.6370    0.0000 C   0  0  0  0  0  0  0  0  0  0  0  0
    0.0417   -3.3587    0.0000 C   0  0  0  0  0  0  0  0  0  0  0  0
    0.4580   -4.0387    0.0000 C   0  0  0  0  0  0  0  0  0  0  0  0
    7.5686   -3.2338    0.0000 C   0  0  0  0  0  0  0  0  0  0  0  0
    7.7582   -4.0433    0.0000 C   0  0  0  0  0  0  0  0  0  0  0  0
    3.0256   -3.9416    0.0000 C   0  0  0  0  0  0  0  0  0  0  0  0
    7.1476   -4.6078    0.0000 C   0  0  0  0  0  0  0  0  0  0  0  0
    6.3565   -4.3926    0.0000 N   0  0  0  0  0  0  0  0  0  0  0  0
    9.3889   -1.5752    0.0000 N   0  0  0  0  0  0  0  0  0  0  0  0
    8.1746   -2.6994    0.0000 N   0  0  0  0  0  0  0  0  0  0  0  0
    3.8028   -3.6917    0.0000 N   0  0  0  0  0  0  0  0  0  0  0  0
    2.5120   -3.3031    0.0000 N   0  0  0  0  0  0  0  0  0  0  0  0
   10.7907   -1.2491    0.0000 O   0  0  0  0  0  0  0  0  0  0  0  0
    8.5493   -4.3093    0.0000 O   0  0  0  0  0  0  0  0  0  0  0  0
    1.2838   -4.0457    0.0000 O   0  0  0  0  0  0  0  0  0  0  0  0
  1  8  2  0  0  0  0
  2  9  1  0  0  0  0
  9 10  2  0  0  0  0
  9 11  1  0  0  0  0
 11 12  2  0  0  0  0
 12 13  1  0  0  0  0
 14 15  1  0  0  0  0
  3 16  1  0  0  0  0
  4 17  1  0  0  0  0
  5 17  1  0  0  0  0
  6 17  1  0  0  0  0
 18 19  1  0  0  0  0
 16 20  1  0  0  0  0
 10 20  1  0  0  0  0
 20 21  2  0  0  0  0
 21 22  1  0  0  0  0
 22 23  2  0  0  0  0
 23 24  1  0  0  0  0
 16 24  2  0  0  0  0
 10 25  1  0  0  0  0
 13 25  2  0  0  0  0
 26 27  1  0  0  0  0
 27 28  1  0  0  0  0
 28 29  1  0  0  0  0
 29 30  1  0  0  0  0
 23 31  1  0  0  0  0
 31 32  2  0  0  0  0
 32 34  1  0  0  0  0
 22 35  1  0  0  0  0
 34 35  2  0  0  0  0
  8 36  1  0  0  0  0
 14 36  1  0  0  0  0
 18 36  1  0  0  0  0
 15 37  1  0  0  0  0
 19 37  1  0  0  0  0
 31 37  1  0  0  0  0
 25 38  1  0  0  0  0
 33 38  2  0  0  0  0
 13 39  1  0  0  0  0
 26 39  1  0  0  0  0
 33 39  1  0  0  0  0
  8 40  1  0  0  0  0
 17 40  1  0  0  0  0
  7 41  1  0  0  0  0
 32 41  1  0  0  0  0
 26 42  1  0  0  0  0
 30 42  1  0  0  0  0
M  END
> <ID>
SCHEMBL21137352

> <InChIKey>
ARERKJYDPWIBSM-UHFFFAOYSA-N

> <MW>
592.14

> <Series_Name>
Series_17

$$$$
SCHEMBL21137354
  Mrv1719007171906322D 0   0.00000     0.00000     0

 34 38  0  0  1  0              1 V2000 
    4.5944   -4.4293    0.0000 N   0  0  0  0  0  0  0  0  0  0  0  0
    5.4304   -4.6597    0.0000 C   0  0  0  0  0  0  0  0  0  0  0  0
    4.4410   -3.6301    0.0000 C   0  0  0  0  0  0  0  0  0  0  0  0
    2.0531   -2.8874    0.0000 C   0  0  0  0  0  0  0  0  0  0  0  0
    2.6588   -2.3498    0.0000 C   0  0  0  0  0  0  0  0  0  0  0  0
    2.0548   -3.7187    0.0000 C   0  0  0  0  0  0  0  0  0  0  0  0
    1.2518   -3.9892    0.0000 N   0  0  0  0  0  0  0  0  0  0  0  0
    0.5090   -3.3289    0.0000 N   0  0  0  0  0  0  0  0  0  0  0  0
    1.2516   -2.6576    0.0000 C   0  0  0  0  0  0  0  0  0  0  0  0
    1.0912   -1.8442    0.0000 C   0  0  0  0  0  0  0  0  0  0  0  0
    1.6957   -1.3094    0.0000 C   0  0  0  0  0  0  0  0  0  0  0  0
    2.4845   -1.5434    0.0000 C   0  0  0  0  0  0  0  0  0  0  0  0
    3.0950   -0.9906    0.0000 C   0  0  0  0  0  0  0  0  0  0  0  0
    3.4647   -2.5874    0.0000 C   0  0  0  0  0  0  0  0  0  0  0  0
    4.0634   -2.0385    0.0000 C   0  0  0  0  0  0  0  0  0  0  0  0
    3.8778   -1.2151    0.0000 C   0  0  0  0  0  0  0  0  0  0  0  0
    3.7025   -0.4369    0.0000 C   0  0  0  0  0  0  0  0  0  0  0  0
    4.8687   -2.2822    0.0000 C   0  0  0  0  0  0  0  0  0  0  0  0
    5.0480   -3.0877    0.0000 C   0  0  0  0  0  0  0  0  0  0  0  0
    5.8503   -3.3224    0.0000 C   0  0  0  0  0  0  0  0  0  0  0  0
    6.4377   -2.7786    0.0000 N   0  0  0  0  0  0  0  0  0  0  0  0
    6.0309   -4.1151    0.0000 C   0  0  0  0  0  0  0  0  0  0  0  0
    6.8091   -4.3605    0.0000 O   0  0  0  0  0  0  0  0  0  0  0  0
    3.6565   -3.3780    0.0000 C   0  0  0  0  0  0  0  0  0  0  0  0
    7.8511   -2.4728    0.0000 C   0  0  0  0  0  0  0  0  0  0  0  0
    7.6619   -1.6644    0.0000 N   0  0  0  0  0  0  0  0  0  0  0  0
    7.2485   -3.0013    0.0000 C   0  0  2  0  0  0  0  0  0  0  0  0
    6.2752   -1.9783    0.0000 C   0  0  0  0  0  0  0  0  0  0  0  0
    6.9044   -1.4242    0.0000 C   0  0  0  0  0  0  0  0  0  0  0  0
    8.1021   -0.3164    0.0000 O   0  0  0  0  0  0  0  0  0  0  0  0
    8.2275   -1.1409    0.0000 C   0  0  0  0  0  0  0  0  0  0  0  0
    9.0717   -1.3433    0.0000 C   0  0  0  0  0  0  0  0  0  0  0  0
    9.7047   -0.7914    0.0000 C   0  0  0  0  0  0  0  0  0  0  0  0
    7.4311   -3.8083    0.0000 C   0  0  0  0  0  0  0  0  0  0  0  0
  1  2  1  0  0  0  0
  2 22  2  0  0  0  0
  3  1  2  0  0  0  0
  3 19  1  0  0  0  0
  4  5  1  0  0  0  0
  4  6  1  0  0  0  0
  5 14  1  0  0  0  0
  7  6  2  0  0  0  0
  8  9  1  0  0  0  0
  9  4  2  0  0  0  0
 10  9  1  0  0  0  0
 10 11  2  0  0  0  0
 11 12  1  0  0  0  0
 12  5  2  0  0  0  0
 13 12  1  0  0  0  0
 14 24  2  0  0  0  0
 15 14  1  0  0  0  0
 15 18  2  0  0  0  0
 16 17  3  0  0  0  0
 16 15  1  0  0  0  0
 18 19  1  0  0  0  0
 19 20  2  0  0  0  0
 20 21  1  0  0  0  0
 21 28  1  0  0  0  0
 22 20  1  0  0  0  0
 22 23  1  0  0  0  0
 24  3  1  0  0  0  0
 25 26  1  0  0  0  0
 26 29  1  0  0  0  0
 27 25  1  0  0  0  0
 27 34  1  0  0  0  0
 27 21  1  6  0  0  0
 28 29  1  0  0  0  0
 30 31  2  0  0  0  0
 31 32  1  0  0  0  0
 31 26  1  0  0  0  0
 32 33  2  0  0  0  0
 34 23  1  0  0  0  0
M  END
> <ID>
SCHEMBL21137354

> <InChIKey>
ZGLJAOXQPTWLFR-GOSISDBHSA-N

> <MW>
451.53

> <Series_Name>
Series_17

$$$$
SCHEMBL21137356
  Mrv1719007171906332D 0   0.00000     0.00000     0

 30 34  0  0  0  0              1 V2000 
    2.8750   -0.0270    0.0000 C   0  0  0  0  0  0  0  0  0  0  0  0
    3.5297   -0.3037    0.0000 Cl  0  0  0  0  0  0  0  0  0  0  0  0
    7.3157   -2.7940    0.0000 C   0  0  0  0  0  0  0  0  0  0  0  0
    2.2856   -0.5894    0.0000 C   0  0  0  0  0  0  0  0  0  0  0  0
    2.5195   -1.4172    0.0000 C   0  0  0  0  0  0  0  0  0  0  0  0
    6.7084   -0.3780    0.0000 C   0  0  0  0  0  0  0  0  0  0  0  0
    6.1280   -0.9313    0.0000 C   0  0  0  0  0  0  0  0  0  0  0  0
    1.4847   -0.3914    0.0000 C   0  0  0  0  0  0  0  0  0  0  0  0
    0.9043   -0.9449    0.0000 C   0  0  0  0  0  0  0  0  0  0  0  0
    1.1293   -1.7817    0.0000 C   0  0  0  0  0  0  0  0  0  0  0  0
    3.9234   -1.0528    0.0000 C   0  0  0  0  0  0  0  0  0  0  0  0
    7.6937   -1.4037    0.0000 C   0  0  0  0  0  0  0  0  0  0  0  0
    7.1268   -1.9572    0.0000 C   0  0  0  0  0  0  0  0  0  0  0  0
    4.9087   -2.1056    0.0000 C   0  0  0  0  0  0  0  0  0  0  0  0
    4.7242   -1.3093    0.0000 C   0  0  0  0  0  0  0  0  0  0  0  0
    3.3339   -1.6152    0.0000 C   0  0  0  0  0  0  0  0  0  0  0  0
    1.9302   -1.9797    0.0000 C   0  0  0  0  0  0  0  0  0  0  0  0
    3.5094   -2.4026    0.0000 C   0  0  0  0  0  0  0  0  0  0  0  0
    4.3193   -2.6680    0.0000 C   0  0  0  0  0  0  0  0  0  0  0  0
    5.7005   -2.3216    0.0000 C   0  0  0  0  0  0  0  0  0  0  0  0
    5.8985   -3.1494    0.0000 C   0  0  0  0  0  0  0  0  0  0  0  0
    5.3316   -3.6984    0.0000 C   0  0  0  0  0  0  0  0  0  0  0  0
    0.9786   -3.9211    0.0000 O   0  0  0  0  0  0  0  0  0  0  0  0
    1.2429   -3.1067    0.0000 C   0  0  0  0  0  0  0  0  0  0  0  0
    2.2204   -2.8210    0.0000 N   0  0  0  0  0  0  0  0  0  0  0  0
    7.7544   -0.6209    0.0000 N   0  0  0  0  0  0  0  0  0  0  0  0
    6.3102   -1.7547    0.0000 N   0  0  0  0  0  0  0  0  0  0  0  0
    4.5015   -3.4824    0.0000 N   0  0  0  0  0  0  0  0  0  0  0  0
    0.4387   -2.4971    0.0000 N   0  0  0  0  0  0  0  0  0  0  0  0
    6.6949   -3.4014    0.0000 O   0  0  0  0  0  0  0  0  0  0  0  0
  1  4  1  0  0  0  0
  4  5  2  0  0  0  0
  6  7  1  0  0  0  0
  4  8  1  0  0  0  0
  8  9  2  0  0  0  0
  9 10  1  0  0  0  0
  2 11  1  0  0  0  0
 12 13  1  0  0  0  0
 14 15  1  0  0  0  0
 11 15  2  0  0  0  0
 11 16  1  0  0  0  0
  5 16  1  0  0  0  0
  5 17  1  0  0  0  0
 10 17  2  0  0  0  0
 16 18  2  0  0  0  0
 18 19  1  0  0  0  0
 14 19  2  0  0  0  0
 14 20  1  0  0  0  0
 20 21  2  0  0  0  0
 21 22  1  0  0  0  0
 23 24  2  0  0  0  0
 17 25  1  0  0  0  0
 24 25  1  0  0  0  0
  6 26  1  0  0  0  0
 12 26  1  0  0  0  0
  7 27  1  0  0  0  0
 13 27  1  0  0  0  0
 20 27  1  0  0  0  0
 19 28  1  0  0  0  0
 22 28  2  0  0  0  0
 10 29  1  0  0  0  0
 24 29  1  0  0  0  0
  3 30  1  0  0  0  0
 21 30  1  0  0  0  0
M  END
> <ID>
SCHEMBL21137356

> <InChIKey>
STLFPRSQPVZNAG-UHFFFAOYSA-N

> <MW>
423.9

> <Series_Name>
Series_17

$$$$
SCHEMBL21137357
  Mrv1719007171906332D 0   0.00000     0.00000     0

 39 42  0  0  0  0              1 V2000 
    3.4824   -0.0276    0.0000 C   0  0  0  0  0  0  0  0  0  0  0  0
    4.3806   -0.4629    0.0000 Cl  0  0  0  0  0  0  0  0  0  0  0  0
    8.6437   -0.5251    0.0000 O   0  0  0  0  0  0  0  0  0  0  0  0
    1.0088   -2.4321    0.0000 C   0  0  0  0  0  0  0  0  0  0  0  0
    0.6219   -3.2060    0.0000 O   0  0  0  0  0  0  0  0  0  0  0  0
    8.6091   -2.8882    0.0000 C   0  0  0  0  0  0  0  0  0  0  0  0
    9.3278   -3.2889    0.0000 C   0  0  0  0  0  0  0  0  0  0  0  0
   10.0740   -2.9158    0.0000 C   0  0  0  0  0  0  0  0  0  0  0  0
    2.4597   -2.9710    0.0000 C   0  0  0  0  0  0  0  0  0  0  0  0
    7.1582   -3.6758    0.0000 C   0  0  0  0  0  0  0  0  0  0  0  0
    2.7500   -0.4100    0.0000 C   0  0  0  0  0  0  0  0  0  0  0  0
    2.0176   -0.0276    0.0000 C   0  0  0  0  0  0  0  0  0  0  0  0
    1.3266   -0.3869    0.0000 C   0  0  0  0  0  0  0  0  0  0  0  0
    1.3128   -1.2345    0.0000 C   0  0  0  0  0  0  0  0  0  0  0  0
    2.7776   -1.2345    0.0000 C   0  0  0  0  0  0  0  0  0  0  0  0
    4.2562   -1.2345    0.0000 C   0  0  0  0  0  0  0  0  0  0  0  0
    8.6967   -1.3128    0.0000 C   0  0  0  0  0  0  0  0  0  0  0  0
    2.0452   -1.6260    0.0000 C   0  0  0  0  0  0  0  0  0  0  0  0
    3.5238   -1.6260    0.0000 C   0  0  0  0  0  0  0  0  0  0  0  0
    4.9610   -1.6444    0.0000 C   0  0  0  0  0  0  0  0  0  0  0  0
    4.9610   -2.4506    0.0000 C   0  0  0  0  0  0  0  0  0  0  0  0
    7.1582   -1.2852    0.0000 C   0  0  0  0  0  0  0  0  0  0  0  0
    6.4948   -1.6306    0.0000 C   0  0  0  0  0  0  0  0  0  0  0  0
    3.5100   -2.4045    0.0000 C   0  0  0  0  0  0  0  0  0  0  0  0
    4.2286   -2.8421    0.0000 C   0  0  0  0  0  0  0  0  0  0  0  0
    9.3416   -2.5220    0.0000 C   0  0  0  0  0  0  0  0  0  0  0  0
    7.7524   -2.5565    0.0000 C   0  0  0  0  0  0  0  0  0  0  0  0
    7.1720   -2.8605    0.0000 C   0  0  0  0  0  0  0  0  0  0  0  0
    1.1470   -2.4874    0.0000 C   0  0  0  0  0  0  0  0  0  0  0  0
    5.6795   -2.8559    0.0000 C   0  0  0  0  0  0  0  0  0  0  0  0
    5.6795   -3.6666    0.0000 C   0  0  0  0  0  0  0  0  0  0  0  0
    4.9748   -4.0489    0.0000 C   0  0  0  0  0  0  0  0  0  0  0  0
    9.3485   -1.7274    0.0000 O   0  0  0  0  0  0  0  0  0  0  0  0
    4.2147   -3.6482    0.0000 N   0  0  0  0  0  0  0  0  0  0  0  0
    6.4396   -2.4736    0.0000 N   0  0  0  0  0  0  0  0  0  0  0  0
    0.4491   -1.7964    0.0000 N   0  0  0  0  0  0  0  0  0  0  0  0
    7.8975   -1.6997    0.0000 N   0  0  0  0  0  0  0  0  0  0  0  0
    1.8863   -2.4252    0.0000 N   0  0  0  0  0  0  0  0  0  0  0  0
    6.3982   -4.0973    0.0000 O   0  0  0  0  0  0  0  0  0  0  0  0
  1 11  1  0  0  0  0
 11 12  1  0  0  0  0
 12 13  2  0  0  0  0
 13 14  1  0  0  0  0
 11 15  2  0  0  0  0
  2 16  1  0  0  0  0
  3 17  2  0  0  0  0
 14 18  2  0  0  0  0
 15 18  1  0  0  0  0
 15 19  1  0  0  0  0
 16 19  1  0  0  0  0
 16 20  2  0  0  0  0
 20 21  1  0  0  0  0
 22 23  1  0  0  0  0
 19 24  2  0  0  0  0
 24 25  1  0  0  0  0
 21 25  2  0  0  0  0
  6 26  1  0  0  0  0
  7 26  1  0  0  0  0
  8 26  1  0  0  0  0
 27 28  1  0  0  0  0
  5 29  2  0  0  0  0
 21 30  1  0  0  0  0
 30 31  2  0  0  0  0
 31 32  1  0  0  0  0
 17 33  1  0  0  0  0
 26 33  1  0  0  0  0
 25 34  1  0  0  0  0
 32 34  2  0  0  0  0
 23 35  1  0  0  0  0
 28 35  1  0  0  0  0
 30 35  1  0  0  0  0
  4 36  1  0  0  0  0
 14 36  1  0  0  0  0
 17 37  1  0  0  0  0
 22 37  1  0  0  0  0
 27 37  1  0  0  0  0
  9 38  1  0  0  0  0
 18 38  1  0  0  0  0
 29 38  1  0  0  0  0
 10 39  1  0  0  0  0
 31 39  1  0  0  0  0
M  END
> <ID>
SCHEMBL21137357

> <InChIKey>
QDNKGIIZRKWLNX-UHFFFAOYSA-N

> <MW>
554.09

> <Series_Name>
Series_17

$$$$
SCHEMBL21137363
  Mrv1719007171906342D 0   0.00000     0.00000     0

 35 40  0  0  1  0              1 V2000 
    4.2539   -3.6986    0.0000 C   0  0  0  0  0  0  0  0  0  0  0  0
    4.4114   -4.5234    0.0000 N   0  0  0  0  0  0  0  0  0  0  0  0
    3.4522   -3.4473    0.0000 C   0  0  0  0  0  0  0  0  0  0  0  0
    2.8569   -4.0333    0.0000 F   0  0  0  0  0  0  0  0  0  0  0  0
    1.3691   -3.6474    0.0000 C   0  0  0  0  0  0  0  0  0  0  0  0
    2.0447   -4.1313    0.0000 O   0  0  0  0  0  0  0  0  0  0  0  0
    0.5812   -4.2223    0.0000 N   0  0  0  0  0  0  0  0  0  0  0  0
    1.3640   -2.8167    0.0000 C   0  0  0  0  0  0  0  0  0  0  0  0
    0.5801   -2.6047    0.0000 C   0  0  0  0  0  0  0  0  0  0  0  0
    0.1226   -3.2517    0.0000 C   0  0  0  0  0  0  0  0  0  0  0  0
    0.3939   -1.7826    0.0000 C   0  0  0  0  0  0  0  0  0  0  0  0
    1.0000   -1.2228    0.0000 C   0  0  0  0  0  0  0  0  0  0  0  0
    1.7871   -1.4468    0.0000 C   0  0  0  0  0  0  0  0  0  0  0  0
    2.3952   -0.8823    0.0000 C   0  0  0  0  0  0  0  0  0  0  0  0
    1.9467   -2.2814    0.0000 C   0  0  0  0  0  0  0  0  0  0  0  0
    3.2802   -2.6529    0.0000 C   0  0  0  0  0  0  0  0  0  0  0  0
    3.8713   -2.0944    0.0000 C   0  0  0  0  0  0  0  0  0  0  0  0
    3.5109   -1.2919    0.0000 Cl  0  0  0  0  0  0  0  0  0  0  0  0
    4.6715   -2.3517    0.0000 C   0  0  0  0  0  0  0  0  0  0  0  0
    4.8457   -3.1465    0.0000 C   0  0  0  0  0  0  0  0  0  0  0  0
    5.6569   -3.3763    0.0000 C   0  0  0  0  0  0  0  0  0  0  0  0
    6.2320   -2.8149    0.0000 N   0  0  0  0  0  0  0  0  0  0  0  0
    5.8215   -4.1974    0.0000 C   0  0  0  0  0  0  0  0  0  0  0  0
    6.6101   -4.4253    0.0000 O   0  0  0  0  0  0  0  0  0  0  0  0
    5.2446   -4.7471    0.0000 C   0  0  0  0  0  0  0  0  0  0  0  0
    7.0377   -3.0352    0.0000 C   0  0  2  0  0  0  0  0  0  0  0  0
    7.6392   -2.4855    0.0000 C   0  0  0  0  0  0  0  0  0  0  0  0
    7.4363   -1.6806    0.0000 N   0  0  0  0  0  0  0  0  0  0  0  0
    6.0718   -2.0195    0.0000 C   0  0  0  0  0  0  0  0  0  0  0  0
    6.6569   -1.4503    0.0000 C   0  0  0  0  0  0  0  0  0  0  0  0
    7.9927   -1.1616    0.0000 C   0  0  0  0  0  0  0  0  0  0  0  0
    8.8518   -1.3603    0.0000 C   0  0  0  0  0  0  0  0  0  0  0  0
    7.8564   -0.3081    0.0000 O   0  0  0  0  0  0  0  0  0  0  0  0
    9.0367   -2.1574    0.0000 C   0  0  0  0  0  0  0  0  0  0  0  0
    7.2397   -3.8506    0.0000 C   0  0  0  0  0  0  0  0  0  0  0  0
  1  2  1  0  0  0  0
  2 25  2  0  0  0  0
  3  1  2  0  0  0  0
  3 16  1  0  0  0  0
  4  3  1  0  0  0  0
  5  6  1  0  0  0  0
  7  5  1  0  0  0  0
  8  5  1  0  0  0  0
  9  8  2  0  0  0  0
  9 11  1  0  0  0  0
 10  9  1  0  0  0  0
 10  7  1  0  0  0  0
 11 12  2  0  0  0  0
 12 13  1  0  0  0  0
 13 15  2  0  0  0  0
 14 13  1  0  0  0  0
 15 16  1  0  0  0  0
 15  8  1  0  0  0  0
 16 17  2  0  0  0  0
 17 18  1  0  0  0  0
 17 19  1  0  0  0  0
 19 20  2  0  0  0  0
 20 21  1  0  0  0  0
 20  1  1  0  0  0  0
 21 23  2  0  0  0  0
 22 21  1  0  0  0  0
 23 24  1  0  0  0  0
 25 23  1  0  0  0  0
 26 22  1  6  0  0  0
 26 27  1  0  0  0  0
 26 35  1  0  0  0  0
 27 28  1  0  0  0  0
 28 30  1  0  0  0  0
 29 30  1  0  0  0  0
 29 22  1  0  0  0  0
 31 32  1  0  0  0  0
 31 28  1  0  0  0  0
 32 34  2  0  0  0  0
 33 31  2  0  0  0  0
 35 24  1  0  0  0  0
M  END
> <ID>
SCHEMBL21137363

> <InChIKey>
HLFRWFXENNVPPZ-GJNAARLKSA-N

> <MW>
494.95

> <Series_Name>
Series_17

$$$$
SCHEMBL21137440
  Mrv1719007171907102D 0   0.00000     0.00000     0

 32 37  0  0  0  0              1 V2000 
    3.4771    0.9486    0.0000 O   0  0  0  0  0  0  0  0  0  0  0  0
    0.0000    0.4835    0.0000 C   0  0  0  0  0  0  0  0  0  0  0  0
    4.4597    0.9315    0.0000 C   0  0  1  0  0  0  0  0  0  0  0  0
    8.6773    2.5978    0.0000 C   0  0  0  0  0  0  0  0  0  0  0  0
    7.9675    3.0028    0.0000 C   0  0  0  0  0  0  0  0  0  0  0  0
    7.3124    2.6343    0.0000 C   0  0  0  0  0  0  0  0  0  0  0  0
    7.2351    1.7425    0.0000 C   0  0  0  0  0  0  0  0  0  0  0  0
   10.1104    2.5797    0.0000 C   0  0  0  0  0  0  0  0  0  0  0  0
    9.4416    2.9891    0.0000 C   0  0  0  0  0  0  0  0  0  0  0  0
    8.6682    1.7561    0.0000 C   0  0  0  0  0  0  0  0  0  0  0  0
    5.7974    1.6037    0.0000 C   0  0  0  0  0  0  0  0  0  0  0  0
    5.4152    2.3202    0.0000 C   0  0  0  0  0  0  0  0  0  0  0  0
    4.7464    2.3750    0.0000 C   0  0  0  0  0  0  0  0  0  0  0  0
    4.1368    1.6924    0.0000 C   0  0  0  0  0  0  0  0  0  0  0  0
    3.3133    1.8699    0.0000 C   0  0  0  0  0  0  0  0  0  0  0  0
    2.6627    1.3694    0.0000 C   0  0  0  0  0  0  0  0  0  0  0  0
    2.0030    1.7470    0.0000 C   0  0  0  0  0  0  0  0  0  0  0  0
    1.3070    1.3922    0.0000 C   0  0  0  0  0  0  0  0  0  0  0  0
    1.2524    0.5005    0.0000 C   0  0  0  0  0  0  0  0  0  0  0  0
    9.4007    1.3376    0.0000 C   0  0  0  0  0  0  0  0  0  0  0  0
    7.9539    1.3376    0.0000 C   0  0  0  0  0  0  0  0  0  0  0  0
    6.5299    1.3330    0.0000 C   0  0  0  0  0  0  0  0  0  0  0  0
    6.4253    0.4368    0.0000 C   0  0  0  0  0  0  0  0  0  0  0  0
    5.7701    0.2184    0.0000 C   0  0  0  0  0  0  0  0  0  0  0  0
    4.1049    0.1638    0.0000 C   0  0  0  0  0  0  0  0  0  0  0  0
    3.3815    0.0000    0.0000 C   0  0  0  0  0  0  0  0  0  0  0  0
    1.9757    0.0955    0.0000 C   0  0  0  0  0  0  0  0  0  0  0  0
    5.2879    0.8053    0.0000 C   0  0  0  0  0  0  0  0  0  0  0  0
    2.7446    0.5626    0.0000 C   0  0  0  0  0  0  0  0  0  0  0  0
    0.5475    0.1342    0.0000 N   0  0  0  0  0  0  0  0  0  0  0  0
   10.1104    1.7266    0.0000 N   0  0  0  0  0  0  0  0  0  0  0  0
    6.2244    2.0931    0.0000 C   0  0  0  0  0  0  0  0  0  0  0  0
 30  2  1  0  0  0  0
  4  5  1  0  0  0  0
  5  6  2  0  0  0  0
  6  7  1  0  0  0  0
  8  9  2  0  0  0  0
  4  9  1  0  0  0  0
  4 10  2  0  0  0  0
 11 12  1  0  0  0  0
 12 13  1  0  0  0  0
 13 14  2  0  0  0  0
  3 14  1  0  0  0  0
 14 15  1  0  0  0  0
 15 16  2  0  0  0  0
 16 17  1  0  0  0  0
 17 18  1  0  0  0  0
 18 19  1  0  0  0  0
 10 20  1  0  0  0  0
 10 21  1  0  0  0  0
  7 21  2  0  0  0  0
  7 22  1  0  0  0  0
 11 22  1  0  0  0  0
 22 23  1  0  0  0  0
 23 24  1  0  0  0  0
  3 25  1  0  0  0  0
 25 26  1  0  0  0  0
 19 27  1  0  0  0  0
 24 28  1  0  0  0  0
 11 28  1  0  0  0  0
  3 28  1  0  0  0  0
 16 29  1  0  0  0  0
 26 29  1  0  0  0  0
 27 29  1  0  0  0  0
 19 30  1  0  0  0  0
  8 31  1  0  0  0  0
 20 31  2  0  0  0  0
  3  1  1  6  0  0  0
 11 32  1  0  0  0  0
M  END
> <ID>
SCHEMBL21137440

> <InChIKey>
WGDWZNUVFALIBB-DGKSTNQBSA-N

> <MW>
428.62

> <Series_Name>
Series_16

$$$$
SCHEMBL21137460
  Mrv1719007171907142D 0   0.00000     0.00000     0

 34 41  0  0  0  0              1 V2000 
    5.4810    1.1146    0.0000 C   0  0  1  0  0  0  0  0  0  0  0  0
    9.7194    2.7967    0.0000 C   0  0  0  0  0  0  0  0  0  0  0  0
    9.0284    3.2187    0.0000 C   0  0  0  0  0  0  0  0  0  0  0  0
    8.4303    2.8848    0.0000 C   0  0  0  0  0  0  0  0  0  0  0  0
    8.3097    1.9343    0.0000 C   0  0  0  0  0  0  0  0  0  0  0  0
   11.1708    2.8014    0.0000 C   0  0  0  0  0  0  0  0  0  0  0  0
   10.4474    3.2187    0.0000 C   0  0  0  0  0  0  0  0  0  0  0  0
    9.7240    1.9343    0.0000 C   0  0  0  0  0  0  0  0  0  0  0  0
    6.8165    1.7997    0.0000 C   0  0  0  0  0  0  0  0  0  0  0  0
    6.4409    2.5092    0.0000 C   0  0  0  0  0  0  0  0  0  0  0  0
    5.6201    2.5927    0.0000 C   0  0  0  0  0  0  0  0  0  0  0  0
    5.1519    1.8833    0.0000 C   0  0  0  0  0  0  0  0  0  0  0  0
    4.4517    2.0502    0.0000 C   0  0  0  0  0  0  0  0  0  0  0  0
    3.6679    1.5447    0.0000 C   0  0  0  0  0  0  0  0  0  0  0  0
    2.9909    1.9388    0.0000 C   0  0  0  0  0  0  0  0  0  0  0  0
    2.3371    1.6050    0.0000 C   0  0  0  0  0  0  0  0  0  0  0  0
    2.2397    0.6821    0.0000 C   0  0  0  0  0  0  0  0  0  0  0  0
    7.5712    1.5354    0.0000 C   0  0  0  0  0  0  0  0  0  0  0  0
   10.4613    1.5215    0.0000 C   0  0  0  0  0  0  0  0  0  0  0  0
    9.0007    1.5215    0.0000 C   0  0  0  0  0  0  0  0  0  0  0  0
    6.3482    1.0485    0.0000 C   0  0  0  0  0  0  0  0  0  0  0  0
    7.5816    0.6729    0.0000 C   0  0  0  0  0  0  0  0  0  0  0  0
    6.8165    0.3808    0.0000 C   0  0  0  0  0  0  0  0  0  0  0  0
    0.3895    1.3917    0.0000 C   0  0  0  0  0  0  0  0  0  0  0  0
    0.7790    0.7100    0.0000 C   0  0  0  0  0  0  0  0  0  0  0  0
    5.1194    0.3252    0.0000 C   0  0  0  0  0  0  0  0  0  0  0  0
    4.3960    0.1582    0.0000 C   0  0  0  0  0  0  0  0  0  0  0  0
    2.9353    0.2695    0.0000 C   0  0  0  0  0  0  0  0  0  0  0  0
    0.0000    0.7007    0.0000 C   0  0  0  0  0  0  0  0  0  0  0  0
    3.7212    0.7331    0.0000 C   0  0  0  0  0  0  0  0  0  0  0  0
    4.3821    1.0833    0.0000 O   0  0  0  0  0  0  0  0  0  0  0  0
   11.1777    1.9179    0.0000 N   0  0  0  0  0  0  0  0  0  0  0  0
    1.4268    0.3043    0.0000 N   0  0  0  0  0  0  0  0  0  0  0  0
    7.2515    2.3054    0.0000 C   0  0  0  0  0  0  0  0  0  0  0  0
  2  3  1  0  0  0  0
  3  4  2  0  0  0  0
  4  5  1  0  0  0  0
  6  7  2  0  0  0  0
  2  7  1  0  0  0  0
  2  8  2  0  0  0  0
  9 10  1  0  0  0  0
 10 11  1  0  0  0  0
 11 12  2  0  0  0  0
  1 12  1  0  0  0  0
 12 13  1  0  0  0  0
 13 14  2  0  0  0  0
 14 15  1  0  0  0  0
 15 16  1  0  0  0  0
 16 17  1  0  0  0  0
  5 18  1  0  0  0  0
  9 18  1  0  0  0  0
  8 19  1  0  0  0  0
  8 20  1  0  0  0  0
  5 20  2  0  0  0  0
  9 21  1  0  0  0  0
  1 21  1  0  0  0  0
 18 22  1  0  0  0  0
 22 23  1  0  0  0  0
 21 23  1  0  0  0  0
 24 25  1  0  0  0  0
  1 26  1  0  0  0  0
 26 27  1  0  0  0  0
 17 28  1  0  0  0  0
 24 29  1  0  0  0  0
 25 29  1  0  0  0  0
 14 30  1  0  0  0  0
 27 30  1  0  0  0  0
 28 30  1  0  0  0  0
  1 31  1  6  0  0  0
 30 31  1  0  0  0  0
  6 32  1  0  0  0  0
 19 32  2  0  0  0  0
 25 33  1  0  0  0  0
 17 33  1  0  0  0  0
  9 34  1  0  0  0  0
M  END
> <ID>
SCHEMBL21137460

> <InChIKey>
NBZIAIALPZFNTI-HJNRHZLXSA-N

> <MW>
452.642

> <Series_Name>
Series_16

$$$$
SCHEMBL21137464
  Mrv1719007171907162D 0   0.00000     0.00000     0

 39 46  0  0  1  0              1 V2000 
   13.8058   -7.4091    0.0000 O   0  0  0  0  0  0  0  0  0  0  0  0
   14.7876   -7.4763    0.0000 C   0  0  0  0  0  0  0  0  0  0  0  0
   15.3668   -6.8745    0.0000 C   0  0  0  0  0  0  0  0  0  0  0  0
   16.0652   -7.2036    0.0000 N   0  0  0  0  0  0  0  0  0  0  0  0
   15.9875   -8.0305    0.0000 C   0  0  0  0  0  0  0  0  0  0  0  0
   15.2537   -8.2004    0.0000 C   0  0  0  0  0  0  0  0  0  0  0  0
   16.7589   -6.8021    0.0000 C   0  0  0  0  0  0  0  0  0  0  0  0
   16.7878   -5.9143    0.0000 C   0  0  0  0  0  0  0  0  0  0  0  0
   17.5300   -5.5256    0.0000 C   0  0  0  0  0  0  0  0  0  0  0  0
   18.7907   -5.4374    0.0000 C   0  0  0  0  0  0  0  0  0  0  0  0
   19.6148   -5.5824    0.0000 C   0  0  0  0  0  0  0  0  0  0  0  0
   20.0605   -4.8874    0.0000 C   0  0  0  0  0  0  0  0  0  0  0  0
   20.8450   -4.9731    0.0000 C   0  0  0  0  0  0  0  0  0  0  0  0
   21.2387   -5.6789    0.0000 C   0  0  2  0  0  0  0  0  0  0  0  0
   21.8237   -5.0543    0.0000 C   0  0  0  0  0  0  0  0  0  0  0  0
   21.9742   -5.9482    0.0000 C   0  0  0  0  0  0  0  0  0  0  0  0
   22.6770   -4.6896    0.0000 C   0  0  0  0  0  0  0  0  0  0  0  0
   22.6728   -5.5454    0.0000 C   0  0  0  0  0  0  0  0  0  0  0  0
   23.3759   -4.2730    0.0000 C   0  0  0  0  0  0  0  0  0  0  0  0
   24.7952   -4.2730    0.0000 C   0  0  0  0  0  0  0  0  0  0  0  0
   24.0821   -4.6902    0.0000 C   0  0  0  0  0  0  0  0  0  0  0  0
   25.4510   -4.6940    0.0000 C   0  0  0  0  0  0  0  0  0  0  0  0
   25.4255   -5.5311    0.0000 N   0  0  0  0  0  0  0  0  0  0  0  0
   24.0823   -5.5409    0.0000 C   0  0  0  0  0  0  0  0  0  0  0  0
   24.7609   -5.9428    0.0000 C   0  0  0  0  0  0  0  0  0  0  0  0
   19.9367   -6.3483    0.0000 C   0  0  2  0  0  0  0  0  0  0  0  0
   19.6139   -7.1150    0.0000 C   0  0  0  0  0  0  0  0  0  0  0  0
   18.8014   -7.2861    0.0000 C   0  0  0  0  0  0  0  0  0  0  0  0
   18.1827   -6.7880    0.0000 C   0  0  2  0  0  0  0  0  0  0  0  0
   18.1858   -5.9249    0.0000 C   0  0  0  0  0  0  0  0  0  0  0  0
   17.4969   -7.1750    0.0000 C   0  0  0  0  0  0  0  0  0  0  0  0
   21.9686   -6.7880    0.0000 C   0  0  0  0  0  0  0  0  0  0  0  0
   20.7533   -6.3877    0.0000 C   0  0  2  0  0  0  0  0  0  0  0  0
   21.2074   -7.0758    0.0000 C   0  0  0  0  0  0  0  0  0  0  0  0
   23.3489   -5.9695    0.0000 C   0  0  0  0  0  0  0  0  0  0  0  0
   16.4727   -8.2899    0.0000 C   0  0  0  0  0  0  0  0  0  0  0  0
   16.4907   -8.8397    0.0000 O   0  0  0  0  0  0  0  0  0  0  0  0
   16.9398   -7.9993    0.0000 O   0  0  0  0  0  0  0  0  0  0  0  0
   18.9407   -6.3234    0.0000 O   0  0  0  0  0  0  0  0  0  0  0  0
  1  2  1  0  0  0  0
  2  3  1  0  0  0  0
  3  4  1  0  0  0  0
  4  5  1  0  0  0  0
  5  6  1  0  0  0  0
  6  2  1  0  0  0  0
  7  4  1  0  0  0  0
  7  8  1  0  0  0  0
  7 31  1  0  0  0  0
  8  9  1  0  0  0  0
 10 11  1  0  0  0  0
 11 12  2  0  0  0  0
 12 13  1  0  0  0  0
 14 15  1  1  0  0  0
 14 16  1  0  0  0  0
 14 13  1  0  0  0  0
 16 18  1  0  0  0  0
 17 18  1  0  0  0  0
 17 19  2  0  0  0  0
 18 35  2  0  0  0  0
 19 21  1  0  0  0  0
 20 21  1  0  0  0  0
 20 22  2  0  0  0  0
 21 24  2  0  0  0  0
 23 22  1  0  0  0  0
 24 25  1  0  0  0  0
 25 23  2  0  0  0  0
 26 27  1  0  0  0  0
 33 26  1  0  0  0  0
 26 39  1  6  0  0  0
 26 11  1  0  0  0  0
 27 28  1  0  0  0  0
 29 28  1  0  0  0  0
 29 30  1  0  0  0  0
 29 39  1  6  0  0  0
 30 10  2  0  0  0  0
 30  9  1  0  0  0  0
 29 31  1  0  0  0  0
 32 16  1  0  0  0  0
 33 34  1  1  0  0  0
 14 33  1  0  0  0  0
 34 32  1  0  0  0  0
 35 24  1  0  0  0  0
 36 37  2  0  0  0  0
 36 38  1  0  0  0  0
 36  5  1  0  0  0  0
M  END
> <ID>
SCHEMBL21137464

> <InChIKey>
ILQBCFGXKUEURP-YRXNUPDYSA-N

> <MW>
526.677

> <Series_Name>
Series_16

$$$$
SCHEMBL21137466
  Mrv1719007171907162D 0   0.00000     0.00000     0

 31 37  0  0  1  0              1 V2000 
    1.9149   -3.0067    0.0000 C   0  0  0  0  0  0  0  0  0  0  0  0
    1.2543   -2.5922    0.0000 C   0  0  0  0  0  0  0  0  0  0  0  0
    0.3673   -3.0122    0.0000 O   0  0  0  0  0  0  0  0  0  0  0  0
    1.2734   -1.7537    0.0000 C   0  0  0  0  0  0  0  0  0  0  0  0
    1.9223   -1.3619    0.0000 C   0  0  0  0  0  0  0  0  0  0  0  0
    2.6536   -1.7517    0.0000 C   0  0  0  0  0  0  0  0  0  0  0  0
    3.2392   -1.2527    0.0000 C   0  0  0  0  0  0  0  0  0  0  0  0
    4.0740   -1.4075    0.0000 C   0  0  0  0  0  0  0  0  0  0  0  0
    4.5172   -0.7365    0.0000 C   0  0  0  0  0  0  0  0  0  0  0  0
    5.3408   -0.8261    0.0000 C   0  0  0  0  0  0  0  0  0  0  0  0
    5.6163   -1.4320    0.0000 C   0  0  0  0  0  0  0  0  0  0  0  0
    6.2668   -0.8742    0.0000 C   0  0  0  0  0  0  0  0  0  0  0  0
    6.4332   -1.7803    0.0000 C   0  0  1  0  0  0  0  0  0  0  0  0
    7.1828   -1.3256    0.0000 C   0  0  0  0  0  0  0  0  0  0  0  0
    7.7834   -0.1428    0.0000 C   0  0  0  0  0  0  0  0  0  0  0  0
    8.5004   -0.5268    0.0000 C   0  0  0  0  0  0  0  0  0  0  0  0
    9.2229   -0.1377    0.0000 C   0  0  0  0  0  0  0  0  0  0  0  0
    9.8702   -0.5339    0.0000 C   0  0  0  0  0  0  0  0  0  0  0  0
    9.8447   -1.3665    0.0000 N   0  0  0  0  0  0  0  0  0  0  0  0
    8.5013   -1.3696    0.0000 C   0  0  0  0  0  0  0  0  0  0  0  0
    9.1896   -1.7853    0.0000 C   0  0  0  0  0  0  0  0  0  0  0  0
    7.7870   -1.7849    0.0000 C   0  0  0  0  0  0  0  0  0  0  0  0
    6.4254   -2.6053    0.0000 C   0  0  0  0  0  0  0  0  0  0  0  0
    5.6362   -2.8814    0.0000 C   0  0  0  0  0  0  0  0  0  0  0  0
    5.2037   -2.2309    0.0000 C   0  0  1  0  0  0  0  0  0  0  0  0
    4.3874   -2.1583    0.0000 C   0  0  1  0  0  0  0  0  0  0  0  0
    4.0365   -2.9281    0.0000 C   0  0  0  0  0  0  0  0  0  0  0  0
    3.2840   -3.1235    0.0000 C   0  0  0  0  0  0  0  0  0  0  0  0
    2.6435   -2.5888    0.0000 C   0  0  1  0  0  0  0  0  0  0  0  0
    7.1158   -0.5425    0.0000 C   0  0  0  0  0  0  0  0  0  0  0  0
    3.3942   -2.1452    0.0000 O   0  0  0  0  0  0  0  0  0  0  0  0
  1  2  1  0  0  0  0
 29  1  1  0  0  0  0
  2  3  1  0  0  0  0
  4  5  1  0  0  0  0
  4  2  1  0  0  0  0
  5  6  1  0  0  0  0
  6  7  2  0  0  0  0
  7  8  1  0  0  0  0
  8  9  2  0  0  0  0
  9 10  1  0  0  0  0
 10 11  1  0  0  0  0
 12 11  1  0  0  0  0
 13 14  1  1  0  0  0
 13 23  1  0  0  0  0
 13 11  1  0  0  0  0
 14 22  2  0  0  0  0
 14 30  1  0  0  0  0
 15 16  1  0  0  0  0
 16 20  2  0  0  0  0
 17 16  1  0  0  0  0
 17 18  2  0  0  0  0
 19 18  1  0  0  0  0
 20 21  1  0  0  0  0
 21 19  2  0  0  0  0
 22 20  1  0  0  0  0
 25 24  1  1  0  0  0
 24 23  1  0  0  0  0
 25 11  1  0  0  0  0
 25 26  1  0  0  0  0
 26 27  1  0  0  0  0
 26  8  1  0  0  0  0
 26 31  1  6  0  0  0
 28 27  1  0  0  0  0
 29 28  1  0  0  0  0
 29 31  1  6  0  0  0
 29  6  1  0  0  0  0
 30 15  2  0  0  0  0
M  END
> <ID>
SCHEMBL21137466

> <InChIKey>
MQTJIRVJLIFLLF-WHHIECBJSA-N

> <MW>
413.561

> <Series_Name>
Series_16

$$$$
SCHEMBL21137468
  Mrv1719007171907162D 0   0.00000     0.00000     0

 31 36  0  0  0  0              1 V2000 
   17.4771    1.8856    0.0000 O   0  0  0  0  0  0  0  0  0  0  0  0
   20.2214    3.0537    0.0000 C   0  0  0  0  0  0  0  0  0  0  0  0
   14.4289    0.9987    0.0000 O   0  0  0  0  0  0  0  0  0  0  0  0
   18.4609    1.8744    0.0000 C   0  0  2  0  0  0  0  0  0  0  0  0
   22.6346    3.5377    0.0000 C   0  0  0  0  0  0  0  0  0  0  0  0
   21.9340    3.9352    0.0000 C   0  0  0  0  0  0  0  0  0  0  0  0
   21.2185    3.5178    0.0000 C   0  0  0  0  0  0  0  0  0  0  0  0
   21.1986    2.6930    0.0000 C   0  0  0  0  0  0  0  0  0  0  0  0
   24.0209    3.5327    0.0000 C   0  0  0  0  0  0  0  0  0  0  0  0
   23.3650    3.9352    0.0000 C   0  0  0  0  0  0  0  0  0  0  0  0
   22.6346    2.6930    0.0000 C   0  0  0  0  0  0  0  0  0  0  0  0
   19.7652    2.5377    0.0000 C   0  0  0  0  0  0  0  0  0  0  0  0
   19.4149    3.2495    0.0000 C   0  0  0  0  0  0  0  0  0  0  0  0
   18.6994    3.3240    0.0000 C   0  0  0  0  0  0  0  0  0  0  0  0
   18.1380    2.6235    0.0000 C   0  0  0  0  0  0  0  0  0  0  0  0
   17.2983    2.8023    0.0000 C   0  0  0  0  0  0  0  0  0  0  0  0
   16.7020    2.3005    0.0000 C   0  0  0  0  0  0  0  0  0  0  0  0
   15.9418    2.6980    0.0000 C   0  0  0  0  0  0  0  0  0  0  0  0
   15.3008    2.2955    0.0000 C   0  0  0  0  0  0  0  0  0  0  0  0
   15.2711    1.4408    0.0000 C   0  0  0  0  0  0  0  0  0  0  0  0
   21.9340    2.2806    0.0000 C   0  0  0  0  0  0  0  0  0  0  0  0
   20.5329    2.2707    0.0000 C   0  0  0  0  0  0  0  0  0  0  0  0
   23.3351    2.2657    0.0000 C   0  0  0  0  0  0  0  0  0  0  0  0
   19.3006    1.8036    0.0000 C   0  0  0  0  0  0  0  0  0  0  0  0
   16.7020    1.4408    0.0000 C   0  0  0  0  0  0  0  0  0  0  0  0
   20.5329    1.4458    0.0000 C   0  0  0  0  0  0  0  0  0  0  0  0
   19.7428    1.1328    0.0000 C   0  0  0  0  0  0  0  0  0  0  0  0
   18.1031    1.1031    0.0000 C   0  0  0  0  0  0  0  0  0  0  0  0
   17.3579    0.9092    0.0000 C   0  0  0  0  0  0  0  0  0  0  0  0
   16.0164    1.0285    0.0000 C   0  0  0  0  0  0  0  0  0  0  0  0
   24.0209    2.6681    0.0000 N   0  0  0  0  0  0  0  0  0  0  0  0
  5  6  1  0  0  0  0
  6  7  2  0  0  0  0
  7  8  1  0  0  0  0
  9 10  2  0  0  0  0
  5 10  1  0  0  0  0
  5 11  2  0  0  0  0
 12  2  1  0  0  0  0
 12 13  1  0  0  0  0
 13 14  1  0  0  0  0
 14 15  2  0  0  0  0
  4 15  1  0  0  0  0
 15 16  1  0  0  0  0
 16 17  2  0  0  0  0
 17 18  1  0  0  0  0
 18 19  1  0  0  0  0
 19 20  1  0  0  0  0
  3 20  1  0  0  0  0
 11 21  1  0  0  0  0
  8 21  2  0  0  0  0
  8 22  1  0  0  0  0
 12 22  1  0  0  0  0
 11 23  1  0  0  0  0
 12 24  1  0  0  0  0
  4 24  1  0  0  0  0
 17 25  1  0  0  0  0
 22 26  1  0  0  0  0
 26 27  1  0  0  0  0
 24 27  1  0  0  0  0
  4 28  1  0  0  0  0
 28 29  1  0  0  0  0
 25 29  1  0  0  0  0
 25 30  1  0  0  0  0
 20 30  1  0  0  0  0
  9 31  1  0  0  0  0
 23 31  2  0  0  0  0
  4  1  1  6  0  0  0
M  END
> <ID>
SCHEMBL21137468

> <InChIKey>
ZNQALYUKKIDTSZ-TXDUEXNESA-N

> <MW>
415.577

> <Series_Name>
Series_16

$$$$
SCHEMBL21137469
  Mrv1719007171907162D 0   0.00000     0.00000     0

 39 45  0  0  1  0              1 V2000 
   18.0957   -5.3614    0.0000 N   0  0  0  0  0  0  0  0  0  0  0  0
   19.1232   -5.1914    0.0000 C   0  0  0  0  0  0  0  0  0  0  0  0
   19.1954   -4.3812    0.0000 N   0  0  0  0  0  0  0  0  0  0  0  0
   19.7408   -5.7450    0.0000 O   0  0  0  0  0  0  0  0  0  0  0  0
   17.8786   -4.6734    0.0000 C   0  0  0  0  0  0  0  0  0  0  0  0
   16.9451   -5.0886    0.0000 C   0  0  0  0  0  0  0  0  0  0  0  0
   17.0899   -4.0999    0.0000 C   0  0  0  0  0  0  0  0  0  0  0  0
   18.2406   -3.2220    0.0000 O   0  0  0  0  0  0  0  0  0  0  0  0
   18.4385   -4.0587    0.0000 C   0  0  0  0  0  0  0  0  0  0  0  0
   22.0626   -2.6361    0.0000 C   0  0  0  0  0  0  0  0  0  0  0  0
   22.8777   -2.8014    0.0000 C   0  0  0  0  0  0  0  0  0  0  0  0
   23.3357   -2.1457    0.0000 C   0  0  0  0  0  0  0  0  0  0  0  0
   24.1718   -2.2024    0.0000 C   0  0  0  0  0  0  0  0  0  0  0  0
   24.5934   -2.8928    0.0000 C   0  0  0  0  0  0  0  0  0  0  0  0
   25.1789   -2.2928    0.0000 C   0  0  0  0  0  0  0  0  0  0  0  0
   26.0595   -1.9386    0.0000 C   0  0  0  0  0  0  0  0  0  0  0  0
   26.0551   -2.7612    0.0000 C   0  0  0  0  0  0  0  0  0  0  0  0
   26.8578   -1.5387    0.0000 C   0  0  0  0  0  0  0  0  0  0  0  0
   27.5409   -1.9296    0.0000 C   0  0  0  0  0  0  0  0  0  0  0  0
   28.2219   -1.5383    0.0000 C   0  0  0  0  0  0  0  0  0  0  0  0
   28.9464   -2.7617    0.0000 N   0  0  0  0  0  0  0  0  0  0  0  0
   28.9670   -1.9474    0.0000 C   0  0  0  0  0  0  0  0  0  0  0  0
   27.5417   -2.7570    0.0000 C   0  0  0  0  0  0  0  0  0  0  0  0
   28.3324   -3.1378    0.0000 C   0  0  0  0  0  0  0  0  0  0  0  0
   25.3519   -3.1603    0.0000 C   0  0  0  0  0  0  0  0  0  0  0  0
   25.3370   -3.9770    0.0000 C   0  0  0  0  0  0  0  0  0  0  0  0
   24.5677   -4.2363    0.0000 C   0  0  0  0  0  0  0  0  0  0  0  0
   24.0898   -3.5976    0.0000 C   0  0  1  0  0  0  0  0  0  0  0  0
   23.2129   -3.5353    0.0000 C   0  0  1  0  0  0  0  0  0  0  0  0
   22.8647   -4.2955    0.0000 C   0  0  0  0  0  0  0  0  0  0  0  0
   22.0743   -4.4740    0.0000 C   0  0  0  0  0  0  0  0  0  0  0  0
   21.4214   -3.9697    0.0000 C   0  0  2  0  0  0  0  0  0  0  0  0
   21.4230   -3.1302    0.0000 C   0  0  0  0  0  0  0  0  0  0  0  0
   20.6838   -2.7404    0.0000 C   0  0  0  0  0  0  0  0  0  0  0  0
   19.9694   -3.1481    0.0000 C   0  0  0  0  0  0  0  0  0  0  0  0
   19.9588   -3.9403    0.0000 C   0  0  2  0  0  0  0  0  0  0  0  0
   20.7216   -4.3535    0.0000 C   0  0  0  0  0  0  0  0  0  0  0  0
   26.7786   -3.1471    0.0000 C   0  0  0  0  0  0  0  0  0  0  0  0
   22.1956   -3.4947    0.0000 O   0  0  0  0  0  0  0  0  0  0  0  0
  1  2  1  0  0  0  0
  2  4  2  0  0  0  0
  3  2  1  0  0  0  0
  5  6  1  0  0  0  0
  5  1  1  0  0  0  0
  7  5  1  0  0  0  0
  8  9  2  0  0  0  0
  9  3  1  0  0  0  0
 10 11  1  0  0  0  0
 11 12  2  0  0  0  0
 12 13  1  0  0  0  0
 13 14  1  0  0  0  0
 15 14  1  0  0  0  0
 16 17  1  0  0  0  0
 16 18  2  0  0  0  0
 17 38  2  0  0  0  0
 18 19  1  0  0  0  0
 19 23  2  0  0  0  0
 20 19  1  0  0  0  0
 20 22  2  0  0  0  0
 21 22  1  0  0  0  0
 23 24  1  0  0  0  0
 24 21  2  0  0  0  0
 25 17  1  0  0  0  0
 25 26  1  0  0  0  0
 25 14  1  0  0  0  0
 28 27  1  1  0  0  0
 27 26  1  0  0  0  0
 28 14  1  0  0  0  0
 29 30  1  0  0  0  0
 29 11  1  0  0  0  0
 28 29  1  0  0  0  0
 29 39  1  6  0  0  0
 30 31  1  0  0  0  0
 32 31  1  0  0  0  0
 32 33  1  0  0  0  0
 32 39  1  6  0  0  0
 33 10  2  0  0  0  0
 34 33  1  0  0  0  0
 34 35  1  0  0  0  0
 36 35  1  0  0  0  0
 36 37  1  0  0  0  0
 36  3  1  6  0  0  0
 32 37  1  0  0  0  0
 38 23  1  0  0  0  0
M  END
> <ID>
SCHEMBL21137469

> <InChIKey>
LGBFIMUBPNZOMP-AIUHYHECSA-N

> <MW>
525.693

> <Series_Name>
Series_16

$$$$
SCHEMBL21137470
  Mrv1719007171907172D 0   0.00000     0.00000     0

 36 42  0  0  0  0              1 V2000 
   20.3244    2.8250    0.0000 C   0  0  0  0  0  0  0  0  0  0  0  0
   13.2632    1.1369    0.0000 C   0  0  0  0  0  0  0  0  0  0  0  0
   14.6888    0.0000    0.0000 C   0  0  0  0  0  0  0  0  0  0  0  0
   18.5765    1.6181    0.0000 C   0  0  1  0  0  0  0  0  0  0  0  0
   16.7955    1.1710    0.0000 C   0  0  2  0  0  0  0  0  0  0  0  0
   22.7148    3.3247    0.0000 C   0  0  0  0  0  0  0  0  0  0  0  0
   22.0326    3.7290    0.0000 C   0  0  0  0  0  0  0  0  0  0  0  0
   21.3050    3.3197    0.0000 C   0  0  0  0  0  0  0  0  0  0  0  0
   21.2797    2.4355    0.0000 C   0  0  0  0  0  0  0  0  0  0  0  0
   24.0942    3.3046    0.0000 C   0  0  0  0  0  0  0  0  0  0  0  0
   23.4424    3.7290    0.0000 C   0  0  0  0  0  0  0  0  0  0  0  0
   22.7046    2.4658    0.0000 C   0  0  0  0  0  0  0  0  0  0  0  0
   19.8574    2.2965    0.0000 C   0  0  0  0  0  0  0  0  0  0  0  0
   19.4861    3.0316    0.0000 C   0  0  0  0  0  0  0  0  0  0  0  0
   18.6827    3.1075    0.0000 C   0  0  0  0  0  0  0  0  0  0  0  0
   18.2177    2.4101    0.0000 C   0  0  0  0  0  0  0  0  0  0  0  0
   17.4397    2.5770    0.0000 C   0  0  0  0  0  0  0  0  0  0  0  0
   16.7828    2.0414    0.0000 C   0  0  0  0  0  0  0  0  0  0  0  0
   23.3666    2.0313    0.0000 C   0  0  0  0  0  0  0  0  0  0  0  0
   21.9872    2.0161    0.0000 C   0  0  0  0  0  0  0  0  0  0  0  0
   16.0905    2.4405    0.0000 C   0  0  0  0  0  0  0  0  0  0  0  0
   15.3781    2.0464    0.0000 C   0  0  0  0  0  0  0  0  0  0  0  0
   16.0603    0.7580    0.0000 C   0  0  0  0  0  0  0  0  0  0  0  0
   20.6077    2.0275    0.0000 C   0  0  0  0  0  0  0  0  0  0  0  0
   19.3850    1.5562    0.0000 C   0  0  0  0  0  0  0  0  0  0  0  0
   20.5925    1.1672    0.0000 C   0  0  0  0  0  0  0  0  0  0  0  0
   19.8347    0.8792    0.0000 C   0  0  0  0  0  0  0  0  0  0  0  0
   18.2430    0.8640    0.0000 C   0  0  0  0  0  0  0  0  0  0  0  0
   17.4245    0.6367    0.0000 C   0  0  0  0  0  0  0  0  0  0  0  0
   13.9684    0.2729    0.0000 O   0  0  0  0  0  0  0  0  0  0  0  0
   13.9684    2.0237    0.0000 O   0  0  0  0  0  0  0  0  0  0  0  0
   15.3023    1.1596    0.0000 C   0  0  0  0  0  0  0  0  0  0  0  0
   13.9684    1.1369    0.0000 S   0  0  0  0  0  0  0  0  0  0  0  0
   17.5761    1.6219    0.0000 O   0  0  0  0  0  0  0  0  0  0  0  0
   24.0866    2.4253    0.0000 N   0  0  0  0  0  0  0  0  0  0  0  0
   14.6657    0.7048    0.0000 N   0  0  0  0  0  0  0  0  0  0  0  0
 36  3  1  0  0  0  0
  6  7  1  0  0  0  0
  7  8  2  0  0  0  0
  8  9  1  0  0  0  0
 10 11  2  0  0  0  0
  6 11  1  0  0  0  0
  6 12  2  0  0  0  0
 13  1  1  0  0  0  0
 33  2  1  0  0  0  0
 13 14  1  0  0  0  0
 14 15  1  0  0  0  0
 15 16  2  0  0  0  0
  4 16  1  0  0  0  0
 16 17  1  0  0  0  0
 17 18  2  0  0  0  0
  5 18  1  0  0  0  0
 12 19  1  0  0  0  0
 12 20  1  0  0  0  0
  9 20  2  0  0  0  0
 18 21  1  0  0  0  0
 21 22  1  0  0  0  0
  5 23  1  0  0  0  0
  9 24  1  0  0  0  0
 13 24  1  0  0  0  0
 13 25  1  0  0  0  0
  4 25  1  0  0  0  0
 24 26  1  0  0  0  0
 26 27  1  0  0  0  0
 25 27  1  0  0  0  0
  4 28  1  0  0  0  0
 28 29  1  0  0  0  0
  5 29  1  0  0  0  0
 22 32  1  0  0  0  0
 23 32  1  0  0  0  0
 30 33  2  0  0  0  0
 31 33  2  0  0  0  0
  4 34  1  6  0  0  0
  5 34  1  6  0  0  0
 10 35  1  0  0  0  0
 19 35  2  0  0  0  0
 32 36  1  0  0  0  0
 33 36  1  0  0  0  0
M  END
> <ID>
SCHEMBL21137470

> <InChIKey>
IHIDKOAZPLQFCY-GHUBQLRXSA-N

> <MW>
504.69

> <Series_Name>
Series_16

$$$$
SCHEMBL21137479
  Mrv1719007171907222D 0   0.00000     0.00000     0

 35 41  0  0  1  0              1 V2000 
    5.0106   -2.6413    0.0000 C   0  0  2  0  0  0  0  0  0  0  0  0
    4.3396   -3.0780    0.0000 C   0  0  0  0  0  0  0  0  0  0  0  0
    3.6312   -2.6450    0.0000 C   0  0  1  0  0  0  0  0  0  0  0  0
    3.6447   -1.7826    0.0000 C   0  0  0  0  0  0  0  0  0  0  0  0
    4.3366   -1.3348    0.0000 C   0  0  0  0  0  0  0  0  0  0  0  0
    6.4385   -1.4433    0.0000 C   0  0  0  0  0  0  0  0  0  0  0  0
    6.8724   -0.7190    0.0000 C   0  0  0  0  0  0  0  0  0  0  0  0
    7.6908   -0.8048    0.0000 C   0  0  0  0  0  0  0  0  0  0  0  0
    8.0378   -1.5413    0.0000 C   0  0  0  0  0  0  0  0  0  0  0  0
    8.6169   -0.8944    0.0000 C   0  0  0  0  0  0  0  0  0  0  0  0
    8.7800   -1.7967    0.0000 C   0  0  0  0  0  0  0  0  0  0  0  0
    9.4384   -1.3900    0.0000 C   0  0  0  0  0  0  0  0  0  0  0  0
    9.4568   -0.5210    0.0000 C   0  0  0  0  0  0  0  0  0  0  0  0
   10.1182   -0.1039    0.0000 C   0  0  0  0  0  0  0  0  0  0  0  0
   10.8547   -0.5031    0.0000 C   0  0  0  0  0  0  0  0  0  0  0  0
   11.5138   -0.0944    0.0000 C   0  0  0  0  0  0  0  0  0  0  0  0
   12.2241   -0.5260    0.0000 C   0  0  0  0  0  0  0  0  0  0  0  0
   12.2073   -1.3983    0.0000 N   0  0  0  0  0  0  0  0  0  0  0  0
   10.8489   -1.3847    0.0000 C   0  0  0  0  0  0  0  0  0  0  0  0
   11.5226   -1.7953    0.0000 C   0  0  0  0  0  0  0  0  0  0  0  0
   10.0915   -1.7858    0.0000 C   0  0  0  0  0  0  0  0  0  0  0  0
    8.7713   -2.6615    0.0000 C   0  0  0  0  0  0  0  0  0  0  0  0
    8.0127   -2.9531    0.0000 C   0  0  0  0  0  0  0  0  0  0  0  0
    7.5847   -2.2865    0.0000 C   0  0  0  0  0  0  0  0  0  0  0  0
    6.7626   -2.2128    0.0000 C   0  0  1  0  0  0  0  0  0  0  0  0
    5.6307   -3.1854    0.0000 C   0  0  0  0  0  0  0  0  0  0  0  0
    6.4327   -2.9939    0.0000 C   0  0  0  0  0  0  0  0  0  0  0  0
    5.6414   -1.2586    0.0000 C   0  0  0  0  0  0  0  0  0  0  0  0
    5.0171   -1.7834    0.0000 C   0  0  0  0  0  0  0  0  0  0  0  0
    1.0504   -2.8652    0.0000 O   0  0  0  0  0  0  0  0  0  0  0  0
    0.9833   -2.3109    0.0000 C   0  0  0  0  0  0  0  0  0  0  0  0
    1.5640   -3.0844    0.0000 C   0  0  0  0  0  0  0  0  0  0  0  0
    2.3048   -2.6660    0.0000 C   0  0  0  0  0  0  0  0  0  0  0  0
    2.9227   -3.0991    0.0000 O   0  0  0  0  0  0  0  0  0  0  0  0
    5.7572   -2.1794    0.0000 O   0  0  0  0  0  0  0  0  0  0  0  0
  1  2  1  0  0  0  0
  1 29  1  0  0  0  0
  1 35  1  6  0  0  0
  3  4  1  0  0  0  0
  3  2  1  0  0  0  0
  3 34  1  6  0  0  0
  4  5  1  0  0  0  0
  5 29  1  0  0  0  0
  6  7  2  0  0  0  0
  7  8  1  0  0  0  0
  8  9  1  0  0  0  0
  9 10  1  0  0  0  0
  9 11  1  0  0  0  0
 11 12  1  0  0  0  0
 11 22  1  0  0  0  0
 12 21  2  0  0  0  0
 13 14  2  0  0  0  0
 13 12  1  0  0  0  0
 15 14  1  0  0  0  0
 15 16  1  0  0  0  0
 16 17  2  0  0  0  0
 18 17  1  0  0  0  0
 19 15  2  0  0  0  0
 19 20  1  0  0  0  0
 20 18  2  0  0  0  0
 21 19  1  0  0  0  0
 22 23  1  0  0  0  0
 23 24  1  0  0  0  0
 25 24  1  0  0  0  0
 24  9  1  0  0  0  0
 25 27  1  0  0  0  0
 25  6  1  0  0  0  0
 25 35  1  6  0  0  0
  1 26  1  0  0  0  0
 26 27  1  0  0  0  0
 28  6  1  0  0  0  0
 29 28  2  0  0  0  0
 30 31  1  0  0  0  0
 30 32  1  0  0  0  0
 32 33  1  0  0  0  0
 34 33  1  0  0  0  0
M  END
> <ID>
SCHEMBL21137479

> <InChIKey>
UKSPHELQSJVRQO-NADBKRQDSA-N

> <MW>
471.641

> <Series_Name>
Series_16

$$$$
SCHEMBL21137485
  Mrv1719007171907292D 0   0.00000     0.00000     0

 36 39  0  0  0  0              1 V2000 
    2.1828   -0.2085    0.0000 F   0  0  0  0  0  0  0  0  0  0  0  0
    8.6337   -0.5422    0.0000 C   0  0  0  0  0  0  0  0  0  0  0  0
    7.1947   -0.5770    0.0000 O   0  0  0  0  0  0  0  0  0  0  0  0
    2.9891   -0.6256    0.0000 Cl  0  0  0  0  0  0  0  0  0  0  0  0
    9.3427   -0.9593    0.0000 C   0  0  0  0  0  0  0  0  0  0  0  0
    9.3566   -1.7796    0.0000 C   0  0  0  0  0  0  0  0  0  0  0  0
    0.0417   -3.1142    0.0000 C   0  0  0  0  0  0  0  0  0  0  0  0
    5.7836   -3.8928    0.0000 C   0  0  0  0  0  0  0  0  0  0  0  0
    5.0884   -5.1024    0.0000 C   0  0  0  0  0  0  0  0  0  0  0  0
    1.4505   -0.6071    0.0000 C   0  0  0  0  0  0  0  0  0  0  0  0
    0.7091   -0.2085    0.0000 C   0  0  0  0  0  0  0  0  0  0  0  0
    0.0278   -0.6256    0.0000 C   0  0  0  0  0  0  0  0  0  0  0  0
    0.0278   -1.4459    0.0000 C   0  0  0  0  0  0  0  0  0  0  0  0
    0.7508   -1.8584    0.0000 C   0  0  0  0  0  0  0  0  0  0  0  0
    1.4598   -1.4367    0.0000 C   0  0  0  0  0  0  0  0  0  0  0  0
    8.6511   -1.3555    0.0000 C   0  0  0  0  0  0  0  0  0  0  0  0
    7.2758   -1.4042    0.0000 C   0  0  0  0  0  0  0  0  0  0  0  0
    2.9057   -1.4089    0.0000 C   0  0  0  0  0  0  0  0  0  0  0  0
    5.7558   -1.4042    0.0000 C   0  0  0  0  0  0  0  0  0  0  0  0
    5.0884   -1.7935    0.0000 C   0  0  0  0  0  0  0  0  0  0  0  0
    3.6287   -2.6601    0.0000 C   0  0  0  0  0  0  0  0  0  0  0  0
    3.6147   -1.8352    0.0000 C   0  0  0  0  0  0  0  0  0  0  0  0
    2.1828   -1.8444    0.0000 C   0  0  0  0  0  0  0  0  0  0  0  0
    2.1966   -2.6693    0.0000 C   0  0  0  0  0  0  0  0  0  0  0  0
    2.9104   -3.0818    0.0000 C   0  0  0  0  0  0  0  0  0  0  0  0
    6.4231   -2.6833    0.0000 C   0  0  0  0  0  0  0  0  0  0  0  0
    5.7836   -3.0586    0.0000 C   0  0  0  0  0  0  0  0  0  0  0  0
    4.3516   -3.0679    0.0000 C   0  0  0  0  0  0  0  0  0  0  0  0
    4.3609   -3.8836    0.0000 C   0  0  0  0  0  0  0  0  0  0  0  0
    3.6425   -4.3238    0.0000 C   0  0  0  0  0  0  0  0  0  0  0  0
    5.0746   -4.3307    0.0000 N   0  0  0  0  0  0  0  0  0  0  0  0
    6.4927   -1.8282    0.0000 N   0  0  0  0  0  0  0  0  0  0  0  0
    2.9196   -3.9345    0.0000 N   0  0  0  0  0  0  0  0  0  0  0  0
    5.0606   -2.6693    0.0000 N   0  0  0  0  0  0  0  0  0  0  0  0
    0.7577   -2.7111    0.0000 O   0  0  0  0  0  0  0  0  0  0  0  0
    7.9246   -1.8143    0.0000 O   0  0  0  0  0  0  0  0  0  0  0  0
  1 10  1  0  0  0  0
 10 11  1  0  0  0  0
 11 12  2  0  0  0  0
 12 13  1  0  0  0  0
 13 14  2  0  0  0  0
 10 15  2  0  0  0  0
 14 15  1  0  0  0  0
  2 16  1  0  0  0  0
  5 16  1  0  0  0  0
  6 16  1  0  0  0  0
  3 17  2  0  0  0  0
  4 18  1  0  0  0  0
 19 20  1  0  0  0  0
 21 22  1  0  0  0  0
 18 22  2  0  0  0  0
 18 23  1  0  0  0  0
 15 23  1  0  0  0  0
 23 24  2  0  0  0  0
 24 25  1  0  0  0  0
 21 25  2  0  0  0  0
 26 27  1  0  0  0  0
 21 28  1  0  0  0  0
 28 29  2  0  0  0  0
 29 30  1  0  0  0  0
  8 31  1  0  0  0  0
  9 31  1  0  0  0  0
 29 31  1  0  0  0  0
 17 32  1  0  0  0  0
 19 32  1  0  0  0  0
 26 32  1  0  0  0  0
 25 33  1  0  0  0  0
 30 33  2  0  0  0  0
 20 34  1  0  0  0  0
 27 34  1  0  0  0  0
 28 34  1  0  0  0  0
  7 35  1  0  0  0  0
 14 35  1  0  0  0  0
 16 36  1  0  0  0  0
 17 36  1  0  0  0  0
M  END
> <ID>
SCHEMBL21137485

> <InChIKey>
BWMZXBHIWCIPQT-UHFFFAOYSA-N

> <MW>
515.03

> <Series_Name>
Series_17

$$$$
SCHEMBL21137488
  Mrv1719007171907302D 0   0.00000     0.00000     0

 39 43  0  0  0  0              1 V2000 
    2.9122   -0.2051    0.0000 F   0  0  0  0  0  0  0  0  0  0  0  0
    9.3107   -0.6836    0.0000 C   0  0  0  0  0  0  0  0  0  0  0  0
    3.7324   -0.6357    0.0000 Cl  0  0  0  0  0  0  0  0  0  0  0  0
   10.0079   -1.1075    0.0000 C   0  0  0  0  0  0  0  0  0  0  0  0
    9.9943   -1.9414    0.0000 C   0  0  0  0  0  0  0  0  0  0  0  0
    2.1465   -3.9102    0.0000 C   0  0  0  0  0  0  0  0  0  0  0  0
    6.4122   -3.9786    0.0000 C   0  0  0  0  0  0  0  0  0  0  0  0
    2.1875   -0.5970    0.0000 C   0  0  0  0  0  0  0  0  0  0  0  0
    1.5176   -0.1914    0.0000 C   0  0  0  0  0  0  0  0  0  0  0  0
    0.7657   -0.5879    0.0000 C   0  0  0  0  0  0  0  0  0  0  0  0
    0.7520   -1.4128    0.0000 C   0  0  0  0  0  0  0  0  0  0  0  0
    2.1738   -1.4264    0.0000 C   0  0  0  0  0  0  0  0  0  0  0  0
    9.3107   -1.5005    0.0000 C   0  0  0  0  0  0  0  0  0  0  0  0
    3.5957   -1.4538    0.0000 C   0  0  0  0  0  0  0  0  0  0  0  0
    0.0410   -1.8321    0.0000 C   0  0  0  0  0  0  0  0  0  0  0  0
    0.0273   -2.6387    0.0000 C   0  0  0  0  0  0  0  0  0  0  0  0
    1.4629   -1.8411    0.0000 C   0  0  0  0  0  0  0  0  0  0  0  0
    2.8848   -1.8549    0.0000 C   0  0  0  0  0  0  0  0  0  0  0  0
    4.2930   -2.7116    0.0000 C   0  0  0  0  0  0  0  0  0  0  0  0
    4.3067   -1.8731    0.0000 C   0  0  0  0  0  0  0  0  0  0  0  0
    6.4259   -1.4903    0.0000 C   0  0  0  0  0  0  0  0  0  0  0  0
    5.7969   -1.8457    0.0000 C   0  0  0  0  0  0  0  0  0  0  0  0
    1.4492   -2.6706    0.0000 C   0  0  0  0  0  0  0  0  0  0  0  0
    2.8711   -2.6660    0.0000 C   0  0  0  0  0  0  0  0  0  0  0  0
    3.5821   -3.1127    0.0000 C   0  0  0  0  0  0  0  0  0  0  0  0
    7.1368   -2.7481    0.0000 C   0  0  0  0  0  0  0  0  0  0  0  0
    6.4532   -3.1309    0.0000 C   0  0  0  0  0  0  0  0  0  0  0  0
    5.0040   -3.1263    0.0000 C   0  0  0  0  0  0  0  0  0  0  0  0
    4.9903   -3.9558    0.0000 C   0  0  0  0  0  0  0  0  0  0  0  0
    4.2930   -4.3614    0.0000 C   0  0  0  0  0  0  0  0  0  0  0  0
    7.8683   -1.5176    0.0000 C   0  0  0  0  0  0  0  0  0  0  0  0
    7.8819   -0.6768    0.0000 C   0  0  0  0  0  0  0  0  0  0  0  0
    5.7149   -2.7344    0.0000 N   0  0  0  0  0  0  0  0  0  0  0  0
    0.7383   -3.0899    0.0000 N   0  0  0  0  0  0  0  0  0  0  0  0
    7.1505   -1.9141    0.0000 N   0  0  0  0  0  0  0  0  0  0  0  0
    3.5684   -3.9512    0.0000 N   0  0  0  0  0  0  0  0  0  0  0  0
    2.1602   -3.0967    0.0000 C   0  0  0  0  0  0  0  0  0  0  0  0
    5.7081   -4.3956    0.0000 C   0  0  0  0  0  0  0  0  0  0  0  0
    8.5792   -1.9346    0.0000 C   0  0  0  0  0  0  0  0  0  0  0  0
  1  8  1  0  0  0  0
  8  9  2  0  0  0  0
  9 10  1  0  0  0  0
 10 11  2  0  0  0  0
  8 12  1  0  0  0  0
  2 13  1  0  0  0  0
  4 13  1  0  0  0  0
  5 13  1  0  0  0  0
  3 14  1  0  0  0  0
 11 15  1  0  0  0  0
 15 16  2  0  0  0  0
 11 17  1  0  0  0  0
 12 17  2  0  0  0  0
 12 18  1  0  0  0  0
 14 18  1  0  0  0  0
 19 20  1  0  0  0  0
 14 20  2  0  0  0  0
 21 22  1  0  0  0  0
 17 23  1  0  0  0  0
 18 24  2  0  0  0  0
 24 25  1  0  0  0  0
 19 25  2  0  0  0  0
 26 27  1  0  0  0  0
 19 28  1  0  0  0  0
 28 29  2  0  0  0  0
 29 30  1  0  0  0  0
 31 32  2  0  0  0  0
 22 33  1  0  0  0  0
 27 33  1  0  0  0  0
 28 33  1  0  0  0  0
 16 34  1  0  0  0  0
 23 34  2  0  0  0  0
 21 35  1  0  0  0  0
 26 35  1  0  0  0  0
 31 35  1  0  0  0  0
 25 36  1  0  0  0  0
 30 36  2  0  0  0  0
  6 37  1  0  0  0  0
 23 37  1  0  0  0  0
  7 38  1  0  0  0  0
 29 38  1  0  0  0  0
 13 39  1  0  0  0  0
 31 39  1  0  0  0  0
M  END
> <ID>
SCHEMBL21137488

> <InChIKey>
FIWRMBBAJBIQQO-UHFFFAOYSA-N

> <MW>
545.14

> <Series_Name>
Series_17

$$$$
SCHEMBL21137537
  Mrv1719007171907342D 0   0.00000     0.00000     0

 39 44  0  0  0  0              1 V2000 
    9.2443   -0.7301    0.0000 C   0  0  0  0  0  0  0  0  0  0  0  0
    2.5694   -0.7646    0.0000 F   0  0  0  0  0  0  0  0  0  0  0  0
    3.1893   -1.0332    0.0000 Cl  0  0  0  0  0  0  0  0  0  0  0  0
    8.6243   -1.2537    0.0000 C   0  0  0  0  0  0  0  0  0  0  0  0
    1.9287   -1.2904    0.0000 C   0  0  0  0  0  0  0  0  0  0  0  0
    0.9919   -1.1435    0.0000 C   0  0  0  0  0  0  0  0  0  0  0  0
    0.5097   -1.5705    0.0000 C   0  0  0  0  0  0  0  0  0  0  0  0
    0.6475   -2.3604    0.0000 C   0  0  0  0  0  0  0  0  0  0  0  0
    6.2409   -1.3915    0.0000 C   0  0  0  0  0  0  0  0  0  0  0  0
    5.7587   -1.8185    0.0000 C   0  0  0  0  0  0  0  0  0  0  0  0
    2.0803   -2.0987    0.0000 C   0  0  0  0  0  0  0  0  0  0  0  0
    3.5131   -1.8232    0.0000 C   0  0  0  0  0  0  0  0  0  0  0  0
    4.4775   -2.8840    0.0000 C   0  0  0  0  0  0  0  0  0  0  0  0
    4.3121   -2.0803    0.0000 C   0  0  0  0  0  0  0  0  0  0  0  0
    3.0447   -3.1411    0.0000 C   0  0  0  0  0  0  0  0  0  0  0  0
    3.8483   -3.4258    0.0000 C   0  0  0  0  0  0  0  0  0  0  0  0
    7.3293   -2.3558    0.0000 C   0  0  0  0  0  0  0  0  0  0  0  0
    6.7231   -2.8656    0.0000 C   0  0  0  0  0  0  0  0  0  0  0  0
    1.4604   -2.6268    0.0000 C   0  0  0  0  0  0  0  0  0  0  0  0
    0.0276   -2.9069    0.0000 C   0  0  0  0  0  0  0  0  0  0  0  0
    0.1928   -3.6922    0.0000 C   0  0  0  0  0  0  0  0  0  0  0  0
    5.2765   -3.1503    0.0000 C   0  0  0  0  0  0  0  0  0  0  0  0
    5.4281   -3.9448    0.0000 C   0  0  0  0  0  0  0  0  0  0  0  0
    4.8219   -4.4775    0.0000 C   0  0  0  0  0  0  0  0  0  0  0  0
    2.4178   -3.6991    0.0000 C   0  0  0  0  0  0  0  0  0  0  0  0
    7.8115   -1.0218    0.0000 C   0  0  0  0  0  0  0  0  0  0  0  0
    7.6461   -0.2135    0.0000 C   0  0  0  0  0  0  0  0  0  0  0  0
    2.9069   -2.3214    0.0000 C   0  0  0  0  0  0  0  0  0  0  0  0
    1.5889   -3.4120    0.0000 C   0  0  0  0  0  0  0  0  0  0  0  0
    0.9850   -3.9746    0.0000 N   0  0  0  0  0  0  0  0  0  0  0  0
    4.0091   -4.2295    0.0000 N   0  0  0  0  0  0  0  0  0  0  0  0
    7.1777   -1.5430    0.0000 N   0  0  0  0  0  0  0  0  0  0  0  0
    5.9103   -2.6176    0.0000 N   0  0  0  0  0  0  0  0  0  0  0  0
    6.4751   -4.0366    0.0000 C   0  0  0  0  0  0  0  0  0  0  0  0
    6.8237   -4.7844    0.0000 C   0  0  0  0  0  0  0  0  0  0  0  0
    7.6455   -4.8565    0.0000 C   0  0  0  0  0  0  0  0  0  0  0  0
    8.1188   -4.1808    0.0000 C   0  0  0  0  0  0  0  0  0  0  0  0
    7.7703   -3.4330    0.0000 C   0  0  0  0  0  0  0  0  0  0  0  0
    6.9484   -3.3609    0.0000 C   0  0  0  0  0  0  0  0  0  0  0  0
  1  4  2  0  0  0  0
  2  5  1  0  0  0  0
  5  6  2  0  0  0  0
  6  7  1  0  0  0  0
  7  8  2  0  0  0  0
  9 10  1  0  0  0  0
  5 11  1  0  0  0  0
  3 12  1  0  0  0  0
 13 14  1  0  0  0  0
 12 14  2  0  0  0  0
 15 16  1  0  0  0  0
 13 16  2  0  0  0  0
 17 18  1  0  0  0  0
 11 19  2  0  0  0  0
  8 19  1  0  0  0  0
  8 20  1  0  0  0  0
 20 21  2  0  0  0  0
 13 22  1  0  0  0  0
 22 23  2  0  0  0  0
 23 24  1  0  0  0  0
  4 26  1  0  0  0  0
 26 27  2  0  0  0  0
 11 28  1  0  0  0  0
 12 28  1  0  0  0  0
 15 28  2  0  0  0  0
 19 29  1  0  0  0  0
 25 29  2  0  0  0  0
 21 30  1  0  0  0  0
 29 30  1  0  0  0  0
 16 31  1  0  0  0  0
 24 31  2  0  0  0  0
  9 32  1  0  0  0  0
 17 32  1  0  0  0  0
 26 32  1  0  0  0  0
 10 33  1  0  0  0  0
 18 33  1  0  0  0  0
 22 33  1  0  0  0  0
 34 23  1  0  0  0  0
 34 35  1  0  0  0  0
 35 36  1  0  0  0  0
 36 37  1  0  0  0  0
 37 38  1  0  0  0  0
 38 39  1  0  0  0  0
 34 39  1  0  0  0  0
M  END
> <ID>
SCHEMBL21137537

> <InChIKey>
MAELEZOEEMDTDY-UHFFFAOYSA-N

> <MW>
541.11

> <Series_Name>
Series_17

$$$$
SCHEMBL21137559
  Mrv1719007171907372D 0   0.00000     0.00000     0

 35 39  0  0  0  0              1 V2000 
    7.7893   -0.2519    0.0000 O   0  0  0  0  0  0  0  0  0  0  0  0
    2.2955   -0.8258    0.0000 C   0  0  0  0  0  0  0  0  0  0  0  0
    8.9581   -2.0716    0.0000 C   0  0  0  0  0  0  0  0  0  0  0  0
    3.3943   -1.2457    0.0000 Cl  0  0  0  0  0  0  0  0  0  0  0  0
    2.7924   -3.9821    0.0000 F   0  0  0  0  0  0  0  0  0  0  0  0
    7.1385   -3.7932    0.0000 C   0  0  0  0  0  0  0  0  0  0  0  0
    1.7076   -1.3810    0.0000 C   0  0  0  0  0  0  0  0  0  0  0  0
    8.7761   -1.2877    0.0000 C   0  0  0  0  0  0  0  0  0  0  0  0
    0.9098   -1.1477    0.0000 C   0  0  0  0  0  0  0  0  0  0  0  0
    0.3499   -1.6657    0.0000 C   0  0  0  0  0  0  0  0  0  0  0  0
    0.4992   -2.5195    0.0000 C   0  0  0  0  0  0  0  0  0  0  0  0
    6.4806   -1.4557    0.0000 C   0  0  0  0  0  0  0  0  0  0  0  0
    5.9907   -1.9316    0.0000 C   0  0  0  0  0  0  0  0  0  0  0  0
    1.8756   -2.1882    0.0000 C   0  0  0  0  0  0  0  0  0  0  0  0
    3.7932   -2.0202    0.0000 C   0  0  0  0  0  0  0  0  0  0  0  0
    7.5584   -2.4215    0.0000 C   0  0  0  0  0  0  0  0  0  0  0  0
    6.9705   -2.9674    0.0000 C   0  0  0  0  0  0  0  0  0  0  0  0
    3.1960   -2.5755    0.0000 C   0  0  0  0  0  0  0  0  0  0  0  0
    3.3733   -3.3919    0.0000 C   0  0  0  0  0  0  0  0  0  0  0  0
    4.7730   -3.0560    0.0000 C   0  0  0  0  0  0  0  0  0  0  0  0
    4.5910   -2.2675    0.0000 C   0  0  0  0  0  0  0  0  0  0  0  0
    1.2877   -2.7527    0.0000 C   0  0  0  0  0  0  0  0  0  0  0  0
    0.0420   -3.1773    0.0000 C   0  0  0  0  0  0  0  0  0  0  0  0
    5.5708   -3.2986    0.0000 C   0  0  0  0  0  0  0  0  0  0  0  0
    4.1758   -3.6252    0.0000 C   0  0  0  0  0  0  0  0  0  0  0  0
    5.7528   -4.1058    0.0000 C   0  0  0  0  0  0  0  0  0  0  0  0
    5.1509   -4.6750    0.0000 C   0  0  0  0  0  0  0  0  0  0  0  0
    1.2807   -3.5762    0.0000 C   0  0  0  0  0  0  0  0  0  0  0  0
    1.9805   -4.0801    0.0000 O   0  0  0  0  0  0  0  0  0  0  0  0
    7.9468   -1.0568    0.0000 C   0  0  0  0  0  0  0  0  0  0  0  0
    4.3531   -4.4580    0.0000 N   0  0  0  0  0  0  0  0  0  0  0  0
    0.5206   -3.8686    0.0000 N   0  0  0  0  0  0  0  0  0  0  0  0
    6.1657   -2.7644    0.0000 N   0  0  0  0  0  0  0  0  0  0  0  0
    7.3694   -1.6306    0.0000 N   0  0  0  0  0  0  0  0  0  0  0  0
    6.5436   -4.3741    0.0000 O   0  0  0  0  0  0  0  0  0  0  0  0
  2  7  1  0  0  0  0
  3  8  2  0  0  0  0
  7  9  1  0  0  0  0
  9 10  2  0  0  0  0
 10 11  1  0  0  0  0
 12 13  1  0  0  0  0
  7 14  2  0  0  0  0
  4 15  1  0  0  0  0
 16 17  1  0  0  0  0
 15 18  2  0  0  0  0
 14 18  1  0  0  0  0
 18 19  1  0  0  0  0
  5 19  1  0  0  0  0
 20 21  2  0  0  0  0
 15 21  1  0  0  0  0
 14 22  1  0  0  0  0
 11 22  2  0  0  0  0
 11 23  1  0  0  0  0
 20 24  1  0  0  0  0
 20 25  1  0  0  0  0
 19 25  2  0  0  0  0
 24 26  2  0  0  0  0
 26 27  1  0  0  0  0
 22 28  1  0  0  0  0
 28 29  2  0  0  0  0
  1 30  2  0  0  0  0
  8 30  1  0  0  0  0
 25 31  1  0  0  0  0
 27 31  2  0  0  0  0
 23 32  1  0  0  0  0
 28 32  1  0  0  0  0
 13 33  1  0  0  0  0
 17 33  1  0  0  0  0
 24 33  1  0  0  0  0
 12 34  1  0  0  0  0
 16 34  1  0  0  0  0
 30 34  1  0  0  0  0
  6 35  1  0  0  0  0
 26 35  1  0  0  0  0
M  END
> <ID>
SCHEMBL21137559

> <InChIKey>
CEKYGBCJOFRLFC-UHFFFAOYSA-N

> <MW>
494.95

> <Series_Name>
Series_17

$$$$
SCHEMBL21141499
  Mrv1719007181900512D 0   0.00000     0.00000     0

 28 31  0  0  0  0              1 V2000 
    6.4023   -2.1011    0.0000 N   0  0  0  0  0  0  0  0  0  0  0  0
    6.4394   -2.9333    0.0000 C   0  0  0  0  0  0  0  0  0  0  0  0
    7.1933   -4.1281    0.0000 N   0  0  0  0  0  0  0  0  0  0  0  0
    7.1709   -3.3266    0.0000 C   0  0  0  0  0  0  0  0  0  0  0  0
    5.7531   -3.3789    0.0000 C   0  0  0  0  0  0  0  0  0  0  0  0
    5.7850   -4.2033    0.0000 C   0  0  0  0  0  0  0  0  0  0  0  0
    6.4970   -4.5799    0.0000 C   0  0  0  0  0  0  0  0  0  0  0  0
    0.3028   -2.8303    0.0000 C   0  0  0  0  0  0  0  0  0  0  0  0
    1.2154   -2.5586    0.0000 C   0  0  0  0  0  0  0  0  0  0  0  0
    1.9957   -2.2729    0.0000 C   0  0  0  0  0  0  0  0  0  0  0  0
    2.1364   -1.4689    0.0000 C   0  0  0  0  0  0  0  0  0  0  0  0
    1.2977   -0.9270    0.0000 C   0  0  0  0  0  0  0  0  0  0  0  0
    3.5386   -1.6986    0.0000 C   0  0  0  0  0  0  0  0  0  0  0  0
    4.3012   -1.4090    0.0000 O   0  0  0  0  0  0  0  0  0  0  0  0
    3.3893   -2.5145    0.0000 C   0  0  0  0  0  0  0  0  0  0  0  0
    2.6297   -2.7988    0.0000 C   0  0  0  0  0  0  0  0  0  0  0  0
    2.9119   -1.1799    0.0000 C   0  0  0  0  0  0  0  0  0  0  0  0
    4.9486   -1.9428    0.0000 C   0  0  0  0  0  0  0  0  0  0  0  0
    5.7242   -1.6500    0.0000 C   0  0  0  0  0  0  0  0  0  0  0  0
    5.9450   -0.8528    0.0000 N   0  0  0  0  0  0  0  0  0  0  0  0
    6.7607   -0.8157    0.0000 N   0  0  0  0  0  0  0  0  0  0  0  0
    7.0557   -1.6055    0.0000 C   0  0  0  0  0  0  0  0  0  0  0  0
    7.8236   -1.8168    0.0000 S   0  0  0  0  0  0  0  0  0  0  0  0
    8.3220   -0.4379    0.0000 C   0  0  0  0  0  0  0  0  0  0  0  0
    9.0606   -0.0749    0.0000 C   0  0  0  0  0  0  0  0  0  0  0  0
    9.6347   -0.6631    0.0000 C   0  0  0  0  0  0  0  0  0  0  0  0
    9.2440   -1.3899    0.0000 C   0  0  0  0  0  0  0  0  0  0  0  0
    8.4546   -1.2557    0.0000 C   0  0  0  0  0  0  0  0  0  0  0  0
  1  2  1  0  0  0  0
  1 19  1  0  0  0  0
  2  4  2  0  0  0  0
  2  5  1  0  0  0  0
  3  4  1  0  0  0  0
  5  6  2  0  0  0  0
  6  7  1  0  0  0  0
  7  3  2  0  0  0  0
  8  9  3  0  0  0  0
  9 10  1  0  0  0  0
 10 11  1  0  0  0  0
 10 16  2  0  0  0  0
 11 17  2  0  0  0  0
 12 11  1  0  0  0  0
 13 14  1  0  0  0  0
 15 13  2  0  0  0  0
 16 15  1  0  0  0  0
 17 13  1  0  0  0  0
 18 14  1  0  0  0  0
 18 19  1  0  0  0  0
 19 20  2  0  0  0  0
 20 21  1  0  0  0  0
 21 22  2  0  0  0  0
 22 23  1  0  0  0  0
 22  1  1  0  0  0  0
 23 28  1  0  0  0  0
 24 25  1  0  0  0  0
 24 28  1  0  0  0  0
 25 26  1  0  0  0  0
 26 27  1  0  0  0  0
 27 28  1  0  0  0  0
M  END
> <ID>
SCHEMBL21141499

> <InChIKey>
PYZFPVCKFLYYTQ-UHFFFAOYSA-N

> <MW>
390.51

> <Series_Name>
Series_3

$$$$
SCHEMBL21141504
  Mrv1719007181900522D 0   0.00000     0.00000     0

 36 40  0  0  0  0              1 V2000 
    9.4028   -4.3619    0.0000 C   0  0  0  0  0  0  0  0  0  0  0  0
   10.1427   -3.9622    0.0000 C   0  0  0  0  0  0  0  0  0  0  0  0
   10.1808   -3.1607    0.0000 C   0  0  0  0  0  0  0  0  0  0  0  0
    9.4880   -2.6974    0.0000 C   0  0  0  0  0  0  0  0  0  0  0  0
    8.6961   -3.8940    0.0000 N   0  0  0  0  0  0  0  0  0  0  0  0
    8.7541   -3.0745    0.0000 C   0  0  0  0  0  0  0  0  0  0  0  0
    9.5297   -1.8661    0.0000 N   0  0  0  0  0  0  0  0  0  0  0  0
    0.0765   -3.7068    0.0000 C   0  0  0  0  0  0  0  0  0  0  0  0
    0.2873   -2.9186    0.0000 C   0  0  0  0  0  0  0  0  0  0  0  0
    1.0867   -2.7061    0.0000 C   0  0  0  0  0  0  0  0  0  0  0  0
    1.6750   -3.2801    0.0000 C   0  0  0  0  0  0  0  0  0  0  0  0
    2.4667   -3.0708    0.0000 C   0  0  0  0  0  0  0  0  0  0  0  0
    2.7044   -2.2719    0.0000 C   0  0  0  0  0  0  0  0  0  0  0  0
    4.5160   -0.2239    0.0000 C   0  0  0  0  0  0  0  0  0  0  0  0
    5.3183   -0.8295    0.0000 C   0  0  0  0  0  0  0  0  0  0  0  0
    6.1099   -0.6081    0.0000 C   0  0  0  0  0  0  0  0  0  0  0  0
    6.6979   -1.1959    0.0000 C   0  0  0  0  0  0  0  0  0  0  0  0
    7.4894   -0.9704    0.0000 O   0  0  0  0  0  0  0  0  0  0  0  0
    5.6842   -2.2149    0.0000 C   0  0  0  0  0  0  0  0  0  0  0  0
    6.4774   -1.9926    0.0000 C   0  0  0  0  0  0  0  0  0  0  0  0
    5.0964   -1.6276    0.0000 C   0  0  0  0  0  0  0  0  0  0  0  0
    4.2697   -1.8503    0.0000 C   0  0  0  0  0  0  0  0  0  0  0  0
    3.2187   -2.1334    0.0000 C   0  0  0  0  0  0  0  0  0  0  0  0
    0.6670   -4.2983    0.0000 C   0  0  0  0  0  0  0  0  0  0  0  0
    1.4556   -4.0750    0.0000 C   0  0  0  0  0  0  0  0  0  0  0  0
   10.0025   -0.6096    0.0000 N   0  0  0  0  0  0  0  0  0  0  0  0
   10.2273   -1.4262    0.0000 C   0  0  0  0  0  0  0  0  0  0  0  0
   10.9853   -1.7044    0.0000 S   0  0  0  0  0  0  0  0  0  0  0  0
    8.0909   -1.5684    0.0000 C   0  0  0  0  0  0  0  0  0  0  0  0
    8.8983   -1.3431    0.0000 C   0  0  0  0  0  0  0  0  0  0  0  0
    9.1814   -0.5598    0.0000 N   0  0  0  0  0  0  0  0  0  0  0  0
   12.3684   -0.0842    0.0000 C   0  0  0  0  0  0  0  0  0  0  0  0
   12.8949   -0.7193    0.0000 C   0  0  0  0  0  0  0  0  0  0  0  0
   11.6574   -1.1953    0.0000 C   0  0  0  0  0  0  0  0  0  0  0  0
   11.6212   -0.3753    0.0000 C   0  0  0  0  0  0  0  0  0  0  0  0
   12.4397   -1.4019    0.0000 C   0  0  0  0  0  0  0  0  0  0  0  0
  1  2  2  0  0  0  0
  1  5  1  0  0  0  0
  3  2  1  0  0  0  0
  4  3  2  0  0  0  0
  5  6  2  0  0  0  0
  6  4  1  0  0  0  0
  7  4  1  0  0  0  0
  7 30  1  0  0  0  0
  8  9  1  0  0  0  0
  8 24  2  0  0  0  0
  9 10  2  0  0  0  0
 10 11  1  0  0  0  0
 11 12  1  0  0  0  0
 12 13  1  0  0  0  0
 13 23  1  0  0  0  0
 14 15  1  0  0  0  0
 15 16  2  0  0  0  0
 15 21  1  0  0  0  0
 17 16  1  0  0  0  0
 17 18  1  0  0  0  0
 19 20  1  0  0  0  0
 20 17  2  0  0  0  0
 21 19  2  0  0  0  0
 22 23  3  0  0  0  0
 22 21  1  0  0  0  0
 24 25  1  0  0  0  0
 25 11  2  0  0  0  0
 26 27  2  0  0  0  0
 27 28  1  0  0  0  0
 27  7  1  0  0  0  0
 28 34  1  0  0  0  0
 29 18  1  0  0  0  0
 29 30  1  0  0  0  0
 30 31  2  0  0  0  0
 31 26  1  0  0  0  0
 32 33  1  0  0  0  0
 32 35  1  0  0  0  0
 34 36  1  0  0  0  0
 35 34  1  0  0  0  0
 36 33  1  0  0  0  0
M  END
> <ID>
SCHEMBL21141504

> <InChIKey>
BRHYXNPCYAJKRO-UHFFFAOYSA-N

> <MW>
494.66

> <Series_Name>
Series_3

$$$$
SCHEMBL21141507
  Mrv1719007181900532D 0   0.00000     0.00000     0

 40 45  0  0  0  0              1 V2000 
    9.5008   -4.9331    0.0000 C   0  0  0  0  0  0  0  0  0  0  0  0
   10.2355   -4.5531    0.0000 C   0  0  0  0  0  0  0  0  0  0  0  0
   10.2822   -3.7458    0.0000 C   0  0  0  0  0  0  0  0  0  0  0  0
    9.5916   -3.2862    0.0000 C   0  0  0  0  0  0  0  0  0  0  0  0
    8.8123   -4.4678    0.0000 N   0  0  0  0  0  0  0  0  0  0  0  0
    8.8572   -3.6621    0.0000 C   0  0  0  0  0  0  0  0  0  0  0  0
    9.6268   -2.4561    0.0000 N   0  0  0  0  0  0  0  0  0  0  0  0
    1.0614   -3.1225    0.0000 O   0  0  0  0  0  0  0  0  0  0  0  0
    1.4795   -2.3798    0.0000 C   0  0  0  0  0  0  0  0  0  0  0  0
    0.2980   -1.4529    0.0000 C   0  0  0  0  0  0  0  0  0  0  0  0
    1.0805   -1.6664    0.0000 C   0  0  0  0  0  0  0  0  0  0  0  0
    0.6480   -0.0822    0.0000 C   0  0  0  0  0  0  0  0  0  0  0  0
    0.0768   -0.6527    0.0000 C   0  0  0  0  0  0  0  0  0  0  0  0
    1.6605   -1.0823    0.0000 C   0  0  0  0  0  0  0  0  0  0  0  0
    1.4471   -0.3014    0.0000 C   0  0  0  0  0  0  0  0  0  0  0  0
    2.3930   -1.4957    0.0000 C   0  0  0  0  0  0  0  0  0  0  0  0
    3.1102   -1.0738    0.0000 O   0  0  0  0  0  0  0  0  0  0  0  0
    2.2586   -2.2586    0.0000 N   0  0  0  0  0  0  0  0  0  0  0  0
    3.6345   -2.6464    0.0000 C   0  0  0  0  0  0  0  0  0  0  0  0
    4.6898   -2.3593    0.0000 C   0  0  0  0  0  0  0  0  0  0  0  0
    5.4443   -1.4226    0.0000 C   0  0  0  0  0  0  0  0  0  0  0  0
    5.2305   -2.2122    0.0000 C   0  0  0  0  0  0  0  0  0  0  0  0
    4.6530   -0.8269    0.0000 C   0  0  0  0  0  0  0  0  0  0  0  0
    6.2313   -1.2165    0.0000 C   0  0  0  0  0  0  0  0  0  0  0  0
    6.8294   -1.7902    0.0000 C   0  0  0  0  0  0  0  0  0  0  0  0
    7.6027   -1.5675    0.0000 O   0  0  0  0  0  0  0  0  0  0  0  0
    6.5845   -2.5982    0.0000 C   0  0  0  0  0  0  0  0  0  0  0  0
    5.8238   -2.8005    0.0000 C   0  0  0  0  0  0  0  0  0  0  0  0
    2.8569   -2.8580    0.0000 C   0  0  0  0  0  0  0  0  0  0  0  0
   10.1082   -1.2095    0.0000 N   0  0  0  0  0  0  0  0  0  0  0  0
   10.3344   -2.0156    0.0000 C   0  0  0  0  0  0  0  0  0  0  0  0
   11.0709   -2.2956    0.0000 S   0  0  0  0  0  0  0  0  0  0  0  0
    8.1998   -2.1650    0.0000 C   0  0  0  0  0  0  0  0  0  0  0  0
    8.9969   -1.9459    0.0000 C   0  0  0  0  0  0  0  0  0  0  0  0
    9.2812   -1.1602    0.0000 N   0  0  0  0  0  0  0  0  0  0  0  0
   12.4533   -0.6879    0.0000 C   0  0  0  0  0  0  0  0  0  0  0  0
   12.9757   -1.3145    0.0000 C   0  0  0  0  0  0  0  0  0  0  0  0
   12.5243   -2.0065    0.0000 C   0  0  0  0  0  0  0  0  0  0  0  0
   11.7380   -1.7983    0.0000 C   0  0  0  0  0  0  0  0  0  0  0  0
   11.7007   -0.9738    0.0000 C   0  0  0  0  0  0  0  0  0  0  0  0
  1  2  2  0  0  0  0
  1  5  1  0  0  0  0
  3  2  1  0  0  0  0
  4  3  2  0  0  0  0
  5  6  2  0  0  0  0
  6  4  1  0  0  0  0
  7  4  1  0  0  0  0
  7 34  1  0  0  0  0
  8  9  2  0  0  0  0
  9 11  1  0  0  0  0
  9 18  1  0  0  0  0
 10 11  1  0  0  0  0
 11 14  2  0  0  0  0
 12 13  1  0  0  0  0
 12 15  2  0  0  0  0
 13 10  2  0  0  0  0
 14 15  1  0  0  0  0
 14 16  1  0  0  0  0
 16 17  2  0  0  0  0
 18 16  1  0  0  0  0
 19 20  3  0  0  0  0
 20 22  1  0  0  0  0
 21 22  1  0  0  0  0
 21 24  2  0  0  0  0
 22 28  2  0  0  0  0
 23 21  1  0  0  0  0
 25 24  1  0  0  0  0
 25 26  1  0  0  0  0
 27 25  2  0  0  0  0
 28 27  1  0  0  0  0
 29 18  1  0  0  0  0
 29 19  1  0  0  0  0
 30 31  2  0  0  0  0
 31 32  1  0  0  0  0
 31  7  1  0  0  0  0
 32 39  1  0  0  0  0
 33 26  1  0  0  0  0
 33 34  1  0  0  0  0
 34 35  2  0  0  0  0
 35 30  1  0  0  0  0
 36 37  1  0  0  0  0
 36 40  1  0  0  0  0
 37 38  1  0  0  0  0
 38 39  1  0  0  0  0
 40 39  1  0  0  0  0
M  END
> <ID>
SCHEMBL21141507

> <InChIKey>
WIKFWMMAHCMONM-UHFFFAOYSA-N

> <MW>
549.65

> <Series_Name>
Series_3

$$$$
SCHEMBL21141511
  Mrv1719007181900532D 0   0.00000     0.00000     0

 40 43  0  0  0  0              1 V2000 
   11.2117   -0.1480    0.0000 S   0  0  0  0  0  0  0  0  0  0  0  0
   12.0628   -0.3577    0.0000 S   0  0  0  0  0  0  0  0  0  0  0  0
   10.2373   -0.5181    0.0000 S   0  0  0  0  0  0  0  0  0  0  0  0
    9.8549   -1.1964    0.0000 S   0  0  0  0  0  0  0  0  0  0  0  0
    3.7002   -1.1779    0.0000 C   0  0  0  0  0  0  0  0  0  0  0  0
   12.7042   -1.1717    0.0000 S   0  0  0  0  0  0  0  0  0  0  0  0
   12.7905   -1.7885    0.0000 S   0  0  0  0  0  0  0  0  0  0  0  0
   10.9650   -2.8492    0.0000 S   0  0  0  0  0  0  0  0  0  0  0  0
   12.3465   -2.4792    0.0000 S   0  0  0  0  0  0  0  0  0  0  0  0
   11.9641   -2.9849    0.0000 S   0  0  0  0  0  0  0  0  0  0  0  0
    0.3083   -2.8307    0.0000 C   0  0  0  0  0  0  0  0  0  0  0  0
   11.4954   -0.9559    0.0000 C   0  0  0  0  0  0  0  0  0  0  0  0
   10.7214   -1.2519    0.0000 C   0  0  0  0  0  0  0  0  0  0  0  0
   12.0134   -1.6034    0.0000 C   0  0  0  0  0  0  0  0  0  0  0  0
    4.4855   -1.7144    0.0000 C   0  0  0  0  0  0  0  0  0  0  0  0
   10.7800   -2.0844    0.0000 C   0  0  0  0  0  0  0  0  0  0  0  0
    5.8546   -2.0886    0.0000 C   0  0  0  0  0  0  0  0  0  0  0  0
    5.2790   -1.5048    0.0000 C   0  0  0  0  0  0  0  0  0  0  0  0
   11.5818   -2.3065    0.0000 C   0  0  0  0  0  0  0  0  0  0  0  0
    8.0336   -2.2366    0.0000 C   0  0  0  0  0  0  0  0  0  0  0  0
    9.3492   -2.2983    0.0000 C   0  0  0  0  0  0  0  0  0  0  0  0
    5.6614   -2.8492    0.0000 C   0  0  0  0  0  0  0  0  0  0  0  0
    7.2401   -2.4545    0.0000 C   0  0  0  0  0  0  0  0  0  0  0  0
    1.9118   -3.1452    0.0000 C   0  0  0  0  0  0  0  0  0  0  0  0
    8.6339   -3.5687    0.0000 C   0  0  0  0  0  0  0  0  0  0  0  0
    9.3246   -4.0333    0.0000 C   0  0  0  0  0  0  0  0  0  0  0  0
    7.8938   -3.9592    0.0000 C   0  0  0  0  0  0  0  0  0  0  0  0
    7.8815   -4.7980    0.0000 C   0  0  0  0  0  0  0  0  0  0  0  0
    8.5352   -5.2174    0.0000 C   0  0  0  0  0  0  0  0  0  0  0  0
    3.4659   -2.7258    0.0000 C   0  0  0  0  0  0  0  0  0  0  0  0
    2.6888   -2.9355    0.0000 C   0  0  0  0  0  0  0  0  0  0  0  0
    4.3015   -2.5038    0.0000 C   0  0  0  0  0  0  0  0  0  0  0  0
    4.8535   -3.0219    0.0000 C   0  0  0  0  0  0  0  0  0  0  0  0
   10.1263   -2.6087    0.0000 S   0  0  0  0  0  0  0  0  0  0  0  0
    9.2814   -4.8411    0.0000 N   0  0  0  0  0  0  0  0  0  0  0  0
    8.3317   -1.4740    0.0000 N   0  0  0  0  0  0  0  0  0  0  0  0
    9.1581   -1.5109    0.0000 N   0  0  0  0  0  0  0  0  0  0  0  0
    6.6481   -1.8686    0.0000 O   0  0  0  0  0  0  0  0  0  0  0  0
    1.2951   -2.5717    0.0000 O   0  0  0  0  0  0  0  0  0  0  0  0
    8.6771   -2.7567    0.0000 N   0  0  0  0  0  0  0  0  0  0  0  0
  1 12  1  0  0  0  0
  2 12  1  0  0  0  0
  3 13  1  0  0  0  0
  4 13  1  0  0  0  0
 12 13  1  0  0  0  0
 12 14  1  0  0  0  0
  6 14  1  0  0  0  0
  7 14  1  0  0  0  0
  5 15  1  0  0  0  0
 13 16  1  0  0  0  0
  8 16  1  0  0  0  0
 17 18  1  0  0  0  0
 15 18  2  0  0  0  0
 14 19  1  0  0  0  0
 16 19  1  0  0  0  0
  9 19  1  0  0  0  0
 10 19  1  0  0  0  0
 17 22  2  0  0  0  0
 20 23  1  0  0  0  0
 25 26  2  0  0  0  0
 25 27  1  0  0  0  0
 27 28  2  0  0  0  0
 28 29  1  0  0  0  0
 30 31  3  0  0  0  0
 15 32  1  0  0  0  0
 22 33  1  0  0  0  0
 32 33  2  0  0  0  0
 30 32  1  0  0  0  0
 31 24  1  0  0  0  0
 16 34  1  0  0  0  0
 21 34  1  0  0  0  0
 26 35  1  0  0  0  0
 29 35  2  0  0  0  0
 20 36  2  0  0  0  0
 21 37  2  0  0  0  0
 36 37  1  0  0  0  0
 17 38  1  0  0  0  0
 23 38  1  0  0  0  0
 11 39  1  0  0  0  0
 24 39  1  0  0  0  0
 20 40  1  0  0  0  0
 21 40  1  0  0  0  0
 25 40  1  0  0  0  0
M  END
> <ID>
SCHEMBL21141511

> <InChIKey>
PSFNADLVEAFVSX-UHFFFAOYSA-N

> <MW>
723.1

> <Series_Name>
Series_3

$$$$
SCHEMBL21141539
  Mrv1719007181901222D 0   0.00000     0.00000     0

 30 33  0  0  0  0              1 V2000 
    2.4326   -0.2296    0.0000 C   0  0  0  0  0  0  0  0  0  0  0  0
    0.2482   -2.9973    0.0000 O   0  0  0  0  0  0  0  0  0  0  0  0
    9.5444   -1.1336    0.0000 C   0  0  0  0  0  0  0  0  0  0  0  0
   10.3387   -1.3404    0.0000 C   0  0  0  0  0  0  0  0  0  0  0  0
   10.7855   -0.6454    0.0000 C   0  0  0  0  0  0  0  0  0  0  0  0
   10.3014   -0.0372    0.0000 C   0  0  0  0  0  0  0  0  0  0  0  0
    9.5071   -0.3103    0.0000 C   0  0  0  0  0  0  0  0  0  0  0  0
    3.2146   -0.7695    0.0000 C   0  0  0  0  0  0  0  0  0  0  0  0
    4.6005   -1.1336    0.0000 C   0  0  0  0  0  0  0  0  0  0  0  0
    4.0213   -0.5461    0.0000 C   0  0  0  0  0  0  0  0  0  0  0  0
    6.7931   -1.2825    0.0000 C   0  0  0  0  0  0  0  0  0  0  0  0
    8.1212   -1.3446    0.0000 C   0  0  0  0  0  0  0  0  0  0  0  0
    4.4061   -1.8990    0.0000 C   0  0  0  0  0  0  0  0  0  0  0  0
    5.9947   -1.5018    0.0000 C   0  0  0  0  0  0  0  0  0  0  0  0
    0.6206   -2.1968    0.0000 C   0  0  0  0  0  0  0  0  0  0  0  0
    7.3971   -2.6230    0.0000 C   0  0  0  0  0  0  0  0  0  0  0  0
    8.0922   -3.0904    0.0000 C   0  0  0  0  0  0  0  0  0  0  0  0
    6.6525   -3.0159    0.0000 C   0  0  0  0  0  0  0  0  0  0  0  0
    6.6401   -3.8600    0.0000 C   0  0  0  0  0  0  0  0  0  0  0  0
    7.2855   -4.2819    0.0000 C   0  0  0  0  0  0  0  0  0  0  0  0
    2.1968   -1.7748    0.0000 C   0  0  0  0  0  0  0  0  0  0  0  0
    1.4149   -1.9858    0.0000 C   0  0  0  0  0  0  0  0  0  0  0  0
    3.0377   -1.5514    0.0000 C   0  0  0  0  0  0  0  0  0  0  0  0
    3.6055   -2.0851    0.0000 C   0  0  0  0  0  0  0  0  0  0  0  0
    8.0488   -3.9158    0.0000 N   0  0  0  0  0  0  0  0  0  0  0  0
    7.0931   -0.5151    0.0000 N   0  0  0  0  0  0  0  0  0  0  0  0
    7.9247   -0.5523    0.0000 N   0  0  0  0  0  0  0  0  0  0  0  0
    5.3990   -0.9123    0.0000 O   0  0  0  0  0  0  0  0  0  0  0  0
    7.4406   -1.8058    0.0000 N   0  0  0  0  0  0  0  0  0  0  0  0
    8.8989   -1.6569    0.0000 S   0  0  0  0  0  0  0  0  0  0  0  0
  3  4  1  0  0  0  0
  4  5  1  0  0  0  0
  5  6  1  0  0  0  0
  6  7  1  0  0  0  0
  3  7  1  0  0  0  0
  1  8  1  0  0  0  0
  9 10  1  0  0  0  0
  8 10  2  0  0  0  0
  9 13  2  0  0  0  0
 11 14  1  0  0  0  0
  2 15  1  0  0  0  0
 16 17  2  0  0  0  0
 16 18  1  0  0  0  0
 18 19  2  0  0  0  0
 19 20  1  0  0  0  0
 21 22  3  0  0  0  0
  8 23  1  0  0  0  0
 13 24  1  0  0  0  0
 23 24  2  0  0  0  0
 21 23  1  0  0  0  0
 22 15  1  0  0  0  0
 17 25  1  0  0  0  0
 20 25  2  0  0  0  0
 11 26  2  0  0  0  0
 12 27  2  0  0  0  0
 26 27  1  0  0  0  0
  9 28  1  0  0  0  0
 14 28  1  0  0  0  0
 11 29  1  0  0  0  0
 12 29  1  0  0  0  0
 16 29  1  0  0  0  0
  3 30  1  0  0  0  0
 12 30  1  0  0  0  0
M  END
> <ID>
SCHEMBL21141539

> <InChIKey>
GDKUCRIXNGTMQR-UHFFFAOYSA-N

> <MW>
420.53

> <Series_Name>
Series_3

$$$$
SCHEMBL21141543
  Mrv1719007181901222D 0   0.00000     0.00000     0

 34 37  0  0  0  0              1 V2000 
    8.7407   -3.8751    0.0000 N   0  0  0  0  0  0  0  0  0  0  0  0
    9.4418   -4.3441    0.0000 C   0  0  0  0  0  0  0  0  0  0  0  0
    8.7965   -3.0792    0.0000 C   0  0  0  0  0  0  0  0  0  0  0  0
    9.5297   -2.6894    0.0000 C   0  0  0  0  0  0  0  0  0  0  0  0
    9.5578   -1.8571    0.0000 N   0  0  0  0  0  0  0  0  0  0  0  0
   10.2240   -3.1490    0.0000 C   0  0  0  0  0  0  0  0  0  0  0  0
   10.1792   -3.9665    0.0000 C   0  0  0  0  0  0  0  0  0  0  0  0
    3.5430   -2.0481    0.0000 C   0  0  0  0  0  0  0  0  0  0  0  0
    4.6119   -1.7578    0.0000 C   0  0  0  0  0  0  0  0  0  0  0  0
    5.3681   -0.8260    0.0000 C   0  0  0  0  0  0  0  0  0  0  0  0
    5.1511   -1.6114    0.0000 C   0  0  0  0  0  0  0  0  0  0  0  0
    4.5685   -0.2352    0.0000 C   0  0  0  0  0  0  0  0  0  0  0  0
    6.1704   -0.6085    0.0000 C   0  0  0  0  0  0  0  0  0  0  0  0
    6.7511   -1.1927    0.0000 C   0  0  0  0  0  0  0  0  0  0  0  0
    7.5274   -0.9657    0.0000 O   0  0  0  0  0  0  0  0  0  0  0  0
    2.7673   -2.2587    0.0000 C   0  0  0  0  0  0  0  0  0  0  0  0
    2.2904   -1.6714    0.0000 N   0  0  0  0  0  0  0  0  0  0  0  0
    6.5298   -1.9844    0.0000 C   0  0  0  0  0  0  0  0  0  0  0  0
    5.7382   -2.2064    0.0000 C   0  0  0  0  0  0  0  0  0  0  0  0
   10.0407   -0.6066    0.0000 N   0  0  0  0  0  0  0  0  0  0  0  0
   10.2608   -1.4230    0.0000 C   0  0  0  0  0  0  0  0  0  0  0  0
   11.0064   -1.7085    0.0000 S   0  0  0  0  0  0  0  0  0  0  0  0
    8.1289   -1.5658    0.0000 C   0  0  0  0  0  0  0  0  0  0  0  0
    8.9164   -1.3510    0.0000 C   0  0  0  0  0  0  0  0  0  0  0  0
    9.2112   -0.5695    0.0000 N   0  0  0  0  0  0  0  0  0  0  0  0
   11.6703   -1.1988    0.0000 C   0  0  0  0  0  0  0  0  0  0  0  0
   11.6403   -0.3720    0.0000 C   0  0  0  0  0  0  0  0  0  0  0  0
   12.3966   -0.0792    0.0000 C   0  0  0  0  0  0  0  0  0  0  0  0
   12.9200   -0.7168    0.0000 C   0  0  0  0  0  0  0  0  0  0  0  0
   12.4661   -1.4163    0.0000 C   0  0  0  0  0  0  0  0  0  0  0  0
    1.3619   -1.8818    0.0000 S   0  0  0  0  0  0  0  0  0  0  0  0
    1.5847   -2.6742    0.0000 O   0  0  0  0  0  0  0  0  0  0  0  0
    0.3714   -2.0923    0.0000 C   0  0  0  0  0  0  0  0  0  0  0  0
    1.1514   -1.0895    0.0000 O   0  0  0  0  0  0  0  0  0  0  0  0
  1  2  1  0  0  0  0
  1  3  2  0  0  0  0
  2  7  2  0  0  0  0
  3  4  1  0  0  0  0
  4  6  2  0  0  0  0
  5  4  1  0  0  0  0
  5 24  1  0  0  0  0
  7  6  1  0  0  0  0
  8  9  3  0  0  0  0
  9 11  1  0  0  0  0
 10 11  1  0  0  0  0
 10 13  2  0  0  0  0
 11 19  2  0  0  0  0
 12 10  1  0  0  0  0
 14 13  1  0  0  0  0
 14 15  1  0  0  0  0
 16 17  1  0  0  0  0
 16  8  1  0  0  0  0
 18 14  2  0  0  0  0
 19 18  1  0  0  0  0
 20 21  2  0  0  0  0
 21 22  1  0  0  0  0
 21  5  1  0  0  0  0
 23 15  1  0  0  0  0
 23 24  1  0  0  0  0
 24 25  2  0  0  0  0
 25 20  1  0  0  0  0
 26 27  1  0  0  0  0
 26 22  1  0  0  0  0
 28 29  1  0  0  0  0
 28 27  1  0  0  0  0
 29 30  1  0  0  0  0
 30 26  1  0  0  0  0
 31 32  2  0  0  0  0
 31 33  1  0  0  0  0
 31 17  1  0  0  0  0
 34 31  2  0  0  0  0
M  END
> <ID>
SCHEMBL21141543

> <InChIKey>
DCHZSGNURKEYEH-UHFFFAOYSA-N

> <MW>
497.63

> <Series_Name>
Series_3

$$$$
SCHEMBL21141547
  Mrv1719007181901232D 0   0.00000     0.00000     0

 33 36  0  0  0  0              1 V2000 
    8.9021   -4.3642    0.0000 C   0  0  0  0  0  0  0  0  0  0  0  0
    9.6391   -3.9790    0.0000 C   0  0  0  0  0  0  0  0  0  0  0  0
    8.9857   -2.7101    0.0000 C   0  0  0  0  0  0  0  0  0  0  0  0
    9.6936   -3.1667    0.0000 C   0  0  0  0  0  0  0  0  0  0  0  0
    8.2026   -3.8960    0.0000 N   0  0  0  0  0  0  0  0  0  0  0  0
    8.2505   -3.0840    0.0000 C   0  0  0  0  0  0  0  0  0  0  0  0
    9.0241   -1.8670    0.0000 N   0  0  0  0  0  0  0  0  0  0  0  0
    0.7468   -4.0827    0.0000 C   0  0  0  0  0  0  0  0  0  0  0  0
    1.1739   -3.2887    0.0000 C   0  0  0  0  0  0  0  0  0  0  0  0
    0.3734   -2.6886    0.0000 C   0  0  0  0  0  0  0  0  0  0  0  0
    2.0911   -3.0620    0.0000 N   0  0  0  0  0  0  0  0  0  0  0  0
    2.9769   -2.0600    0.0000 C   0  0  0  0  0  0  0  0  0  0  0  0
    4.0532   -1.7660    0.0000 C   0  0  0  0  0  0  0  0  0  0  0  0
    4.8114   -0.8271    0.0000 C   0  0  0  0  0  0  0  0  0  0  0  0
    4.5939   -1.6182    0.0000 C   0  0  0  0  0  0  0  0  0  0  0  0
    4.0080   -0.2365    0.0000 C   0  0  0  0  0  0  0  0  0  0  0  0
    5.6074   -0.6154    0.0000 C   0  0  0  0  0  0  0  0  0  0  0  0
    6.1939   -1.2033    0.0000 C   0  0  0  0  0  0  0  0  0  0  0  0
    6.9829   -0.9709    0.0000 O   0  0  0  0  0  0  0  0  0  0  0  0
    5.1841   -2.2200    0.0000 C   0  0  0  0  0  0  0  0  0  0  0  0
    2.1889   -2.2753    0.0000 C   0  0  0  0  0  0  0  0  0  0  0  0
    5.9790   -1.9950    0.0000 C   0  0  0  0  0  0  0  0  0  0  0  0
    9.5095   -0.6099    0.0000 N   0  0  0  0  0  0  0  0  0  0  0  0
    9.7280   -1.4330    0.0000 C   0  0  0  0  0  0  0  0  0  0  0  0
   10.4804   -1.7177    0.0000 S   0  0  0  0  0  0  0  0  0  0  0  0
    7.5866   -1.5732    0.0000 C   0  0  0  0  0  0  0  0  0  0  0  0
    8.3821   -1.3544    0.0000 C   0  0  0  0  0  0  0  0  0  0  0  0
    8.6756   -0.5725    0.0000 N   0  0  0  0  0  0  0  0  0  0  0  0
   11.1437   -1.2079    0.0000 C   0  0  0  0  0  0  0  0  0  0  0  0
   11.1133   -0.3731    0.0000 C   0  0  0  0  0  0  0  0  0  0  0  0
   11.8829   -0.0863    0.0000 C   0  0  0  0  0  0  0  0  0  0  0  0
   11.9410   -1.4061    0.0000 C   0  0  0  0  0  0  0  0  0  0  0  0
   12.3891   -0.7186    0.0000 C   0  0  0  0  0  0  0  0  0  0  0  0
  1  2  2  0  0  0  0
  1  5  1  0  0  0  0
  3  4  2  0  0  0  0
  4  2  1  0  0  0  0
  5  6  2  0  0  0  0
  6  3  1  0  0  0  0
  7  3  1  0  0  0  0
  7 27  1  0  0  0  0
  8  9  1  0  0  0  0
  9 11  1  0  0  0  0
 10  9  1  0  0  0  0
 11 21  1  0  0  0  0
 12 13  3  0  0  0  0
 13 15  1  0  0  0  0
 14 15  1  0  0  0  0
 14 17  2  0  0  0  0
 15 20  2  0  0  0  0
 16 14  1  0  0  0  0
 18 19  1  0  0  0  0
 18 17  1  0  0  0  0
 20 22  1  0  0  0  0
 21 12  1  0  0  0  0
 22 18  2  0  0  0  0
 23 24  2  0  0  0  0
 24 25  1  0  0  0  0
 24  7  1  0  0  0  0
 26 19  1  0  0  0  0
 26 27  1  0  0  0  0
 27 28  2  0  0  0  0
 28 23  1  0  0  0  0
 29 30  1  0  0  0  0
 29 25  1  0  0  0  0
 30 31  1  0  0  0  0
 32 29  1  0  0  0  0
 32 33  1  0  0  0  0
 33 31  1  0  0  0  0
M  END
> <ID>
SCHEMBL21141547

> <InChIKey>
HDMRXIDIJWESIK-UHFFFAOYSA-N

> <MW>
461.63

> <Series_Name>
Series_3

$$$$
SCHEMBL21141553
  Mrv1719007181901242D 0   0.00000     0.00000     0

 40 43  0  0  0  0              1 V2000 
    9.9555   -0.1484    0.0000 S   0  0  0  0  0  0  0  0  0  0  0  0
   10.8089   -0.3710    0.0000 S   0  0  0  0  0  0  0  0  0  0  0  0
    8.9786   -0.5318    0.0000 S   0  0  0  0  0  0  0  0  0  0  0  0
    8.5705   -1.1502    0.0000 S   0  0  0  0  0  0  0  0  0  0  0  0
    2.6280   -1.1440    0.0000 F   0  0  0  0  0  0  0  0  0  0  0  0
   11.4520   -1.1748    0.0000 S   0  0  0  0  0  0  0  0  0  0  0  0
   11.5262   -1.8675    0.0000 S   0  0  0  0  0  0  0  0  0  0  0  0
    9.7082   -2.8692    0.0000 S   0  0  0  0  0  0  0  0  0  0  0  0
   10.6481   -2.9929    0.0000 S   0  0  0  0  0  0  0  0  0  0  0  0
   11.0934   -2.5476    0.0000 S   0  0  0  0  0  0  0  0  0  0  0  0
    0.2473   -3.9636    0.0000 O   0  0  0  0  0  0  0  0  0  0  0  0
    4.9530   -3.4690    0.0000 F   0  0  0  0  0  0  0  0  0  0  0  0
   10.2338   -0.9646    0.0000 C   0  0  0  0  0  0  0  0  0  0  0  0
    9.4578   -1.2676    0.0000 C   0  0  0  0  0  0  0  0  0  0  0  0
   10.7656   -1.6139    0.0000 C   0  0  0  0  0  0  0  0  0  0  0  0
    9.5196   -2.1024    0.0000 C   0  0  0  0  0  0  0  0  0  0  0  0
    3.2113   -1.7273    0.0000 C   0  0  0  0  0  0  0  0  0  0  0  0
    4.5841   -2.0942    0.0000 C   0  0  0  0  0  0  0  0  0  0  0  0
    4.0070   -1.5088    0.0000 C   0  0  0  0  0  0  0  0  0  0  0  0
   10.3327   -2.3157    0.0000 C   0  0  0  0  0  0  0  0  0  0  0  0
    6.7689   -2.2508    0.0000 C   0  0  0  0  0  0  0  0  0  0  0  0
    8.1005   -2.3168    0.0000 C   0  0  0  0  0  0  0  0  0  0  0  0
    4.3780   -2.8857    0.0000 C   0  0  0  0  0  0  0  0  0  0  0  0
    5.9610   -2.4610    0.0000 C   0  0  0  0  0  0  0  0  0  0  0  0
    0.6308   -3.1537    0.0000 C   0  0  0  0  0  0  0  0  0  0  0  0
    7.3625   -3.5906    0.0000 C   0  0  0  0  0  0  0  0  0  0  0  0
    6.6288   -3.9699    0.0000 C   0  0  0  0  0  0  0  0  0  0  0  0
    6.5917   -4.7985    0.0000 C   0  0  0  0  0  0  0  0  0  0  0  0
    7.2719   -5.2437    0.0000 C   0  0  0  0  0  0  0  0  0  0  0  0
    8.0634   -4.0564    0.0000 C   0  0  0  0  0  0  0  0  0  0  0  0
    2.1890   -2.7393    0.0000 C   0  0  0  0  0  0  0  0  0  0  0  0
    1.4161   -2.9434    0.0000 C   0  0  0  0  0  0  0  0  0  0  0  0
    3.0268   -2.5167    0.0000 C   0  0  0  0  0  0  0  0  0  0  0  0
    3.5865   -3.0423    0.0000 C   0  0  0  0  0  0  0  0  0  0  0  0
    7.0678   -1.4778    0.0000 N   0  0  0  0  0  0  0  0  0  0  0  0
    7.8964   -1.5274    0.0000 N   0  0  0  0  0  0  0  0  0  0  0  0
    5.3797   -1.8860    0.0000 O   0  0  0  0  0  0  0  0  0  0  0  0
    8.8672   -2.6157    0.0000 S   0  0  0  0  0  0  0  0  0  0  0  0
    8.0201   -4.8665    0.0000 N   0  0  0  0  0  0  0  0  0  0  0  0
    7.4141   -2.7640    0.0000 N   0  0  0  0  0  0  0  0  0  0  0  0
  1 13  1  0  0  0  0
  2 13  1  0  0  0  0
  3 14  1  0  0  0  0
 13 14  1  0  0  0  0
  4 14  1  0  0  0  0
 13 15  1  0  0  0  0
  6 15  1  0  0  0  0
  7 15  1  0  0  0  0
 14 16  1  0  0  0  0
  8 16  1  0  0  0  0
  5 17  1  0  0  0  0
 18 19  1  0  0  0  0
 17 19  2  0  0  0  0
 15 20  1  0  0  0  0
 16 20  1  0  0  0  0
  9 20  1  0  0  0  0
 10 20  1  0  0  0  0
 18 23  2  0  0  0  0
 12 23  1  0  0  0  0
 21 24  1  0  0  0  0
 11 25  1  0  0  0  0
 26 27  1  0  0  0  0
 27 28  2  0  0  0  0
 28 29  1  0  0  0  0
 26 30  2  0  0  0  0
 31 32  3  0  0  0  0
 17 33  1  0  0  0  0
 23 34  1  0  0  0  0
 33 34  2  0  0  0  0
 31 33  1  0  0  0  0
 32 25  1  0  0  0  0
 21 35  2  0  0  0  0
 22 36  2  0  0  0  0
 35 36  1  0  0  0  0
 18 37  1  0  0  0  0
 24 37  1  0  0  0  0
 16 38  1  0  0  0  0
 22 38  1  0  0  0  0
 29 39  2  0  0  0  0
 30 39  1  0  0  0  0
 21 40  1  0  0  0  0
 22 40  1  0  0  0  0
 26 40  1  0  0  0  0
M  END
> <ID>
SCHEMBL21141553

> <InChIKey>
YOPHPMBNJGHYEH-UHFFFAOYSA-N

> <MW>
731.02

> <Series_Name>
Series_3

$$$$
SCHEMBL21141562
  Mrv1719007181901262D 0   0.00000     0.00000     0

 34 37  0  0  0  0              1 V2000 
   10.0339   -4.3507    0.0000 C   0  0  0  0  0  0  0  0  0  0  0  0
   10.7770   -3.9666    0.0000 C   0  0  0  0  0  0  0  0  0  0  0  0
    9.3970   -3.0762    0.0000 C   0  0  0  0  0  0  0  0  0  0  0  0
   10.1244   -2.7013    0.0000 C   0  0  0  0  0  0  0  0  0  0  0  0
    9.3379   -3.8939    0.0000 N   0  0  0  0  0  0  0  0  0  0  0  0
   10.1563   -1.8602    0.0000 N   0  0  0  0  0  0  0  0  0  0  0  0
   10.8237   -3.1546    0.0000 C   0  0  0  0  0  0  0  0  0  0  0  0
    2.0208   -1.8915    0.0000 C   0  0  0  0  0  0  0  0  0  0  0  0
    1.3641   -1.3021    0.0000 O   0  0  0  0  0  0  0  0  0  0  0  0
    2.8894   -1.6742    0.0000 N   0  0  0  0  0  0  0  0  0  0  0  0
    1.7361   -2.6909    0.0000 O   0  0  0  0  0  0  0  0  0  0  0  0
    4.1463   -2.0593    0.0000 C   0  0  0  0  0  0  0  0  0  0  0  0
    5.2073   -1.7720    0.0000 C   0  0  0  0  0  0  0  0  0  0  0  0
    5.1587   -0.2356    0.0000 C   0  0  0  0  0  0  0  0  0  0  0  0
    5.9629   -0.8327    0.0000 C   0  0  0  0  0  0  0  0  0  0  0  0
    6.7647   -0.6118    0.0000 C   0  0  0  0  0  0  0  0  0  0  0  0
    7.3475   -1.1957    0.0000 C   0  0  0  0  0  0  0  0  0  0  0  0
    8.1226   -0.9797    0.0000 O   0  0  0  0  0  0  0  0  0  0  0  0
    5.7425   -1.6272    0.0000 C   0  0  0  0  0  0  0  0  0  0  0  0
    6.3307   -2.2119    0.0000 C   0  0  0  0  0  0  0  0  0  0  0  0
    3.3527   -2.2742    0.0000 C   0  0  0  0  0  0  0  0  0  0  0  0
    7.1229   -1.9887    0.0000 C   0  0  0  0  0  0  0  0  0  0  0  0
   10.6400   -0.6076    0.0000 N   0  0  0  0  0  0  0  0  0  0  0  0
   10.8540   -1.4279    0.0000 C   0  0  0  0  0  0  0  0  0  0  0  0
   11.6073   -1.7114    0.0000 S   0  0  0  0  0  0  0  0  0  0  0  0
    8.7263   -1.5696    0.0000 C   0  0  0  0  0  0  0  0  0  0  0  0
    9.5314   -1.3315    0.0000 C   0  0  0  0  0  0  0  0  0  0  0  0
    9.8215   -0.5704    0.0000 N   0  0  0  0  0  0  0  0  0  0  0  0
   13.0052   -0.0777    0.0000 C   0  0  0  0  0  0  0  0  0  0  0  0
   13.5240   -0.7199    0.0000 C   0  0  0  0  0  0  0  0  0  0  0  0
   12.2889   -1.2004    0.0000 C   0  0  0  0  0  0  0  0  0  0  0  0
   12.2392   -0.3766    0.0000 C   0  0  0  0  0  0  0  0  0  0  0  0
   13.0733   -1.4055    0.0000 C   0  0  0  0  0  0  0  0  0  0  0  0
    0.3721   -1.5129    0.0000 C   0  0  0  0  0  0  0  0  0  0  0  0
  1  2  2  0  0  0  0
  1  5  1  0  0  0  0
  3  4  1  0  0  0  0
  4  7  2  0  0  0  0
  5  3  2  0  0  0  0
  6  4  1  0  0  0  0
  6 27  1  0  0  0  0
  7  2  1  0  0  0  0
  8  9  1  0  0  0  0
  8 10  1  0  0  0  0
 11  8  2  0  0  0  0
 12 13  3  0  0  0  0
 13 19  1  0  0  0  0
 14 15  1  0  0  0  0
 15 16  2  0  0  0  0
 15 19  1  0  0  0  0
 17 16  1  0  0  0  0
 17 18  1  0  0  0  0
 19 20  2  0  0  0  0
 20 22  1  0  0  0  0
 21 10  1  0  0  0  0
 21 12  1  0  0  0  0
 22 17  2  0  0  0  0
 23 24  2  0  0  0  0
 24 25  1  0  0  0  0
 24  6  1  0  0  0  0
 26 18  1  0  0  0  0
 26 27  1  0  0  0  0
 27 28  2  0  0  0  0
 28 23  1  0  0  0  0
 29 30  1  0  0  0  0
 29 32  1  0  0  0  0
 31 25  1  0  0  0  0
 31 33  1  0  0  0  0
 32 31  1  0  0  0  0
 33 30  1  0  0  0  0
 34  9  1  0  0  0  0
M  END
> <ID>
SCHEMBL21141562

> <InChIKey>
MDKSKPPBCDWKLV-UHFFFAOYSA-N

> <MW>
477.58

> <Series_Name>
Series_3

$$$$
SCHEMBL21141565
  Mrv1719007181901272D 0   0.00000     0.00000     0

 36 39  0  0  0  0              1 V2000 
    4.9384   -0.2289    0.0000 C   0  0  0  0  0  0  0  0  0  0  0  0
    1.5223   -2.6301    0.0000 O   0  0  0  0  0  0  0  0  0  0  0  0
    0.3094   -3.6821    0.0000 C   0  0  0  0  0  0  0  0  0  0  0  0
    0.6807   -5.0683    0.0000 C   0  0  0  0  0  0  0  0  0  0  0  0
   12.0303   -1.1304    0.0000 C   0  0  0  0  0  0  0  0  0  0  0  0
   12.8101   -1.3491    0.0000 C   0  0  0  0  0  0  0  0  0  0  0  0
   13.2680   -0.6436    0.0000 C   0  0  0  0  0  0  0  0  0  0  0  0
   12.7111   -0.0248    0.0000 C   0  0  0  0  0  0  0  0  0  0  0  0
   11.9932   -0.3094    0.0000 C   0  0  0  0  0  0  0  0  0  0  0  0
    5.7140   -0.7591    0.0000 C   0  0  0  0  0  0  0  0  0  0  0  0
    7.1084   -1.1221    0.0000 C   0  0  0  0  0  0  0  0  0  0  0  0
    6.5226   -0.5446    0.0000 C   0  0  0  0  0  0  0  0  0  0  0  0
    9.2868   -1.2872    0.0000 C   0  0  0  0  0  0  0  0  0  0  0  0
   10.6193   -1.3532    0.0000 C   0  0  0  0  0  0  0  0  0  0  0  0
    6.9063   -1.8936    0.0000 C   0  0  0  0  0  0  0  0  0  0  0  0
    8.4781   -1.4976    0.0000 C   0  0  0  0  0  0  0  0  0  0  0  0
    3.1314   -2.1907    0.0000 C   0  0  0  0  0  0  0  0  0  0  0  0
    9.8809   -2.6280    0.0000 C   0  0  0  0  0  0  0  0  0  0  0  0
    9.1465   -3.0076    0.0000 C   0  0  0  0  0  0  0  0  0  0  0  0
    9.1094   -3.8368    0.0000 C   0  0  0  0  0  0  0  0  0  0  0  0
    9.7901   -4.2824    0.0000 C   0  0  0  0  0  0  0  0  0  0  0  0
   10.5699   -3.0818    0.0000 C   0  0  0  0  0  0  0  0  0  0  0  0
    2.1495   -3.1850    0.0000 C   0  0  0  0  0  0  0  0  0  0  0  0
    1.0891   -4.2329    0.0000 C   0  0  0  0  0  0  0  0  0  0  0  0
    4.6970   -1.7760    0.0000 C   0  0  0  0  0  0  0  0  0  0  0  0
    3.9235   -1.9865    0.0000 C   0  0  0  0  0  0  0  0  0  0  0  0
    5.5417   -1.5471    0.0000 C   0  0  0  0  0  0  0  0  0  0  0  0
    6.1018   -2.0793    0.0000 C   0  0  0  0  0  0  0  0  0  0  0  0
   11.3867   -1.6523    0.0000 S   0  0  0  0  0  0  0  0  0  0  0  0
   10.4028   -0.5632    0.0000 N   0  0  0  0  0  0  0  0  0  0  0  0
    9.5859   -0.5137    0.0000 N   0  0  0  0  0  0  0  0  0  0  0  0
    7.8964   -0.9221    0.0000 O   0  0  0  0  0  0  0  0  0  0  0  0
    9.9324   -1.8008    0.0000 N   0  0  0  0  0  0  0  0  0  0  0  0
    2.8962   -3.0014    0.0000 O   0  0  0  0  0  0  0  0  0  0  0  0
   10.5389   -3.9049    0.0000 N   0  0  0  0  0  0  0  0  0  0  0  0
    2.0236   -4.0039    0.0000 N   0  0  0  0  0  0  0  0  0  0  0  0
  5  6  1  0  0  0  0
  6  7  1  0  0  0  0
  7  8  1  0  0  0  0
  8  9  1  0  0  0  0
  5  9  1  0  0  0  0
  1 10  1  0  0  0  0
 11 12  1  0  0  0  0
 10 12  2  0  0  0  0
 11 15  2  0  0  0  0
 13 16  1  0  0  0  0
 18 19  1  0  0  0  0
 19 20  2  0  0  0  0
 20 21  1  0  0  0  0
 18 22  2  0  0  0  0
  2 23  2  0  0  0  0
  3 24  1  0  0  0  0
  4 24  1  0  0  0  0
 25 26  3  0  0  0  0
 10 27  1  0  0  0  0
 15 28  1  0  0  0  0
 27 28  2  0  0  0  0
 25 27  1  0  0  0  0
 26 17  1  0  0  0  0
  5 29  1  0  0  0  0
 14 29  1  0  0  0  0
 14 30  2  0  0  0  0
 13 31  2  0  0  0  0
 30 31  1  0  0  0  0
 11 32  1  0  0  0  0
 16 32  1  0  0  0  0
 13 33  1  0  0  0  0
 14 33  1  0  0  0  0
 18 33  1  0  0  0  0
 17 34  1  0  0  0  0
 23 34  1  0  0  0  0
 21 35  2  0  0  0  0
 22 35  1  0  0  0  0
 23 36  1  0  0  0  0
 24 36  1  0  0  0  0
M  END
> <ID>
SCHEMBL21141565

> <InChIKey>
HMVGFRWGQDFPLK-UHFFFAOYSA-N

> <MW>
505.64

> <Series_Name>
Series_3

$$$$
SCHEMBL21141566
  Mrv1719007181901272D 0   0.00000     0.00000     0

 41 44  0  0  0  0              1 V2000 
   11.1802   -0.1476    0.0000 S   0  0  0  0  0  0  0  0  0  0  0  0
   12.0289   -0.3567    0.0000 S   0  0  0  0  0  0  0  0  0  0  0  0
   10.2086   -0.5165    0.0000 S   0  0  0  0  0  0  0  0  0  0  0  0
    9.8273   -1.1931    0.0000 S   0  0  0  0  0  0  0  0  0  0  0  0
    3.6899   -1.1746    0.0000 C   0  0  0  0  0  0  0  0  0  0  0  0
   12.6685   -1.1685    0.0000 S   0  0  0  0  0  0  0  0  0  0  0  0
   12.7546   -1.7834    0.0000 S   0  0  0  0  0  0  0  0  0  0  0  0
   10.9342   -2.8412    0.0000 S   0  0  0  0  0  0  0  0  0  0  0  0
   11.9305   -2.9765    0.0000 S   0  0  0  0  0  0  0  0  0  0  0  0
   12.3118   -2.4722    0.0000 S   0  0  0  0  0  0  0  0  0  0  0  0
    1.4636   -3.9789    0.0000 C   0  0  0  0  0  0  0  0  0  0  0  0
    0.3075   -2.8227    0.0000 C   0  0  0  0  0  0  0  0  0  0  0  0
   11.4631   -0.9532    0.0000 C   0  0  0  0  0  0  0  0  0  0  0  0
   10.6883   -1.2546    0.0000 C   0  0  0  0  0  0  0  0  0  0  0  0
   11.9797   -1.5989    0.0000 C   0  0  0  0  0  0  0  0  0  0  0  0
    4.4729   -1.7096    0.0000 C   0  0  0  0  0  0  0  0  0  0  0  0
   10.7498   -2.0786    0.0000 C   0  0  0  0  0  0  0  0  0  0  0  0
    5.8382   -2.0827    0.0000 C   0  0  0  0  0  0  0  0  0  0  0  0
    5.2642   -1.5006    0.0000 C   0  0  0  0  0  0  0  0  0  0  0  0
   11.5554   -2.2908    0.0000 C   0  0  0  0  0  0  0  0  0  0  0  0
    8.0111   -2.2303    0.0000 C   0  0  0  0  0  0  0  0  0  0  0  0
    9.3230   -2.2918    0.0000 C   0  0  0  0  0  0  0  0  0  0  0  0
    5.5716   -2.8904    0.0000 C   0  0  0  0  0  0  0  0  0  0  0  0
    7.2198   -2.4476    0.0000 C   0  0  0  0  0  0  0  0  0  0  0  0
    1.9023   -3.1241    0.0000 C   0  0  0  0  0  0  0  0  0  0  0  0
    8.6096   -3.5586    0.0000 C   0  0  0  0  0  0  0  0  0  0  0  0
    9.2984   -4.0219    0.0000 C   0  0  0  0  0  0  0  0  0  0  0  0
    7.8717   -3.9481    0.0000 C   0  0  0  0  0  0  0  0  0  0  0  0
    7.8594   -4.7845    0.0000 C   0  0  0  0  0  0  0  0  0  0  0  0
    8.5113   -5.2027    0.0000 C   0  0  0  0  0  0  0  0  0  0  0  0
    3.4500   -2.7182    0.0000 C   0  0  0  0  0  0  0  0  0  0  0  0
    2.6813   -2.9272    0.0000 C   0  0  0  0  0  0  0  0  0  0  0  0
    4.2894   -2.4968    0.0000 C   0  0  0  0  0  0  0  0  0  0  0  0
    4.8398   -3.0134    0.0000 C   0  0  0  0  0  0  0  0  0  0  0  0
    9.1324   -1.5067    0.0000 N   0  0  0  0  0  0  0  0  0  0  0  0
    8.3083   -1.4698    0.0000 N   0  0  0  0  0  0  0  0  0  0  0  0
   10.0979   -2.6013    0.0000 S   0  0  0  0  0  0  0  0  0  0  0  0
    6.6295   -1.8634    0.0000 O   0  0  0  0  0  0  0  0  0  0  0  0
    1.2914   -2.5644    0.0000 O   0  0  0  0  0  0  0  0  0  0  0  0
    9.2554   -4.8275    0.0000 N   0  0  0  0  0  0  0  0  0  0  0  0
    8.6527   -2.7489    0.0000 N   0  0  0  0  0  0  0  0  0  0  0  0
  1 13  1  0  0  0  0
  2 13  1  0  0  0  0
  3 14  1  0  0  0  0
 13 14  1  0  0  0  0
  4 14  1  0  0  0  0
 13 15  1  0  0  0  0
  6 15  1  0  0  0  0
  7 15  1  0  0  0  0
  5 16  1  0  0  0  0
 14 17  1  0  0  0  0
  8 17  1  0  0  0  0
 18 19  1  0  0  0  0
 16 19  2  0  0  0  0
 15 20  1  0  0  0  0
 17 20  1  0  0  0  0
  9 20  1  0  0  0  0
 10 20  1  0  0  0  0
 18 23  2  0  0  0  0
 21 24  1  0  0  0  0
 11 25  1  0  0  0  0
 26 27  2  0  0  0  0
 26 28  1  0  0  0  0
 28 29  2  0  0  0  0
 29 30  1  0  0  0  0
 31 32  3  0  0  0  0
 16 33  1  0  0  0  0
 23 34  1  0  0  0  0
 33 34  2  0  0  0  0
 31 33  1  0  0  0  0
 32 25  1  0  0  0  0
 22 35  2  0  0  0  0
 21 36  2  0  0  0  0
 35 36  1  0  0  0  0
 17 37  1  0  0  0  0
 22 37  1  0  0  0  0
 18 38  1  0  0  0  0
 24 38  1  0  0  0  0
 12 39  1  0  0  0  0
 25 39  1  0  0  0  0
 27 40  1  0  0  0  0
 30 40  2  0  0  0  0
 21 41  1  0  0  0  0
 22 41  1  0  0  0  0
 26 41  1  0  0  0  0
M  END
> <ID>
SCHEMBL21141566

> <InChIKey>
DGOFMCIFXAWWLD-UHFFFAOYSA-N

> <MW>
737.13

> <Series_Name>
Series_3

$$$$
SCHEMBL21141816
  Mrv1719007181902222D 0   0.00000     0.00000     0

 29 32  0  0  0  0              1 V2000 
    7.0073   -3.9250    0.0000 C   0  0  0  0  0  0  0  0  0  0  0  0
    7.0599   -3.0862    0.0000 C   0  0  0  0  0  0  0  0  0  0  0  0
    7.7893   -2.7147    0.0000 C   0  0  0  0  0  0  0  0  0  0  0  0
    7.8223   -1.8778    0.0000 N   0  0  0  0  0  0  0  0  0  0  0  0
    8.4316   -3.9795    0.0000 N   0  0  0  0  0  0  0  0  0  0  0  0
    8.4704   -3.1633    0.0000 C   0  0  0  0  0  0  0  0  0  0  0  0
    7.6966   -4.3743    0.0000 C   0  0  0  0  0  0  0  0  0  0  0  0
    3.6085   -0.8368    0.0000 C   0  0  0  0  0  0  0  0  0  0  0  0
    3.3985   -1.6320    0.0000 C   0  0  0  0  0  0  0  0  0  0  0  0
    2.8106   -0.2363    0.0000 C   0  0  0  0  0  0  0  0  0  0  0  0
    4.4163   -0.6204    0.0000 C   0  0  0  0  0  0  0  0  0  0  0  0
    5.0023   -1.2069    0.0000 C   0  0  0  0  0  0  0  0  0  0  0  0
    5.7828   -0.9825    0.0000 O   0  0  0  0  0  0  0  0  0  0  0  0
    3.9892   -2.2195    0.0000 C   0  0  0  0  0  0  0  0  0  0  0  0
    4.7873   -1.9887    0.0000 C   0  0  0  0  0  0  0  0  0  0  0  0
    2.6016   -1.8491    0.0000 C   0  0  0  0  0  0  0  0  0  0  0  0
    1.4182   -2.1714    0.0000 C   0  0  0  0  0  0  0  0  0  0  0  0
    8.3073   -0.6218    0.0000 N   0  0  0  0  0  0  0  0  0  0  0  0
    8.5350   -1.4377    0.0000 C   0  0  0  0  0  0  0  0  0  0  0  0
    9.2773   -1.7161    0.0000 S   0  0  0  0  0  0  0  0  0  0  0  0
    6.4080   -1.5723    0.0000 C   0  0  0  0  0  0  0  0  0  0  0  0
    7.1870   -1.3669    0.0000 C   0  0  0  0  0  0  0  0  0  0  0  0
    7.4741   -0.5720    0.0000 N   0  0  0  0  0  0  0  0  0  0  0  0
    9.9129   -0.3852    0.0000 C   0  0  0  0  0  0  0  0  0  0  0  0
   10.6820   -0.0967    0.0000 C   0  0  0  0  0  0  0  0  0  0  0  0
   10.7397   -1.4194    0.0000 C   0  0  0  0  0  0  0  0  0  0  0  0
    9.9433   -1.2109    0.0000 C   0  0  0  0  0  0  0  0  0  0  0  0
   11.1860   -0.7255    0.0000 C   0  0  0  0  0  0  0  0  0  0  0  0
    0.9928   -2.2873    0.0000 C   0  0  0  0  0  0  0  0  0  0  0  0
  1  2  2  0  0  0  0
  1  7  1  0  0  0  0
  2  3  1  0  0  0  0
  3  6  2  0  0  0  0
  4  3  1  0  0  0  0
  4 22  1  0  0  0  0
  5  6  1  0  0  0  0
  7  5  2  0  0  0  0
  8  9  1  0  0  0  0
  8 11  2  0  0  0  0
  9 14  2  0  0  0  0
 10  8  1  0  0  0  0
 12 11  1  0  0  0  0
 12 13  1  0  0  0  0
 14 15  1  0  0  0  0
 15 12  2  0  0  0  0
 16 17  3  0  0  0  0
 16  9  1  0  0  0  0
 17 29  1  0  0  0  0
 18 19  2  0  0  0  0
 19 20  1  0  0  0  0
 19  4  1  0  0  0  0
 20 27  1  0  0  0  0
 21 22  1  0  0  0  0
 21 13  1  0  0  0  0
 22 23  2  0  0  0  0
 23 18  1  0  0  0  0
 24 25  1  0  0  0  0
 24 27  1  0  0  0  0
 26 27  1  0  0  0  0
 26 28  1  0  0  0  0
 28 25  1  0  0  0  0
M  END
> <ID>
SCHEMBL21141816

> <InChIKey>
CXHOVHKBHLNBDI-UHFFFAOYSA-N

> <MW>
404.53

> <Series_Name>
Series_3

$$$$
SCHEMBL21141817
  Mrv1719007181902222D 0   0.00000     0.00000     0

 30 33  0  0  0  0              1 V2000 
    2.7459   -0.2299    0.0000 C   0  0  0  0  0  0  0  0  0  0  0  0
    9.8655   -1.1348    0.0000 C   0  0  0  0  0  0  0  0  0  0  0  0
   10.6607   -1.3544    0.0000 C   0  0  0  0  0  0  0  0  0  0  0  0
   11.1204   -0.6586    0.0000 C   0  0  0  0  0  0  0  0  0  0  0  0
   10.5986   -0.0248    0.0000 C   0  0  0  0  0  0  0  0  0  0  0  0
    9.8283   -0.3231    0.0000 C   0  0  0  0  0  0  0  0  0  0  0  0
    3.5287   -0.7828    0.0000 C   0  0  0  0  0  0  0  0  0  0  0  0
    4.9286   -1.1389    0.0000 C   0  0  0  0  0  0  0  0  0  0  0  0
    4.3488   -0.5591    0.0000 C   0  0  0  0  0  0  0  0  0  0  0  0
    7.1113   -1.2963    0.0000 C   0  0  0  0  0  0  0  0  0  0  0  0
    8.4491   -1.3585    0.0000 C   0  0  0  0  0  0  0  0  0  0  0  0
    6.3119   -1.5035    0.0000 C   0  0  0  0  0  0  0  0  0  0  0  0
    4.7215   -1.9135    0.0000 C   0  0  0  0  0  0  0  0  0  0  0  0
    0.1305   -2.4291    0.0000 N   0  0  0  0  0  0  0  0  0  0  0  0
    7.7325   -2.6465    0.0000 C   0  0  0  0  0  0  0  0  0  0  0  0
    8.4118   -3.1063    0.0000 C   0  0  0  0  0  0  0  0  0  0  0  0
    6.9829   -3.0193    0.0000 C   0  0  0  0  0  0  0  0  0  0  0  0
    6.9456   -3.8642    0.0000 C   0  0  0  0  0  0  0  0  0  0  0  0
    7.6165   -4.2991    0.0000 C   0  0  0  0  0  0  0  0  0  0  0  0
    0.9221   -2.2136    0.0000 C   0  0  0  0  0  0  0  0  0  0  0  0
    2.5099   -1.7892    0.0000 C   0  0  0  0  0  0  0  0  0  0  0  0
    1.7333   -1.9943    0.0000 C   0  0  0  0  0  0  0  0  0  0  0  0
    3.3517   -1.5532    0.0000 C   0  0  0  0  0  0  0  0  0  0  0  0
    3.9387   -2.0874    0.0000 C   0  0  0  0  0  0  0  0  0  0  0  0
    8.3683   -3.9201    0.0000 N   0  0  0  0  0  0  0  0  0  0  0  0
    7.4115   -0.5157    0.0000 N   0  0  0  0  0  0  0  0  0  0  0  0
    8.2441   -0.5654    0.0000 N   0  0  0  0  0  0  0  0  0  0  0  0
    7.7594   -1.8203    0.0000 N   0  0  0  0  0  0  0  0  0  0  0  0
    5.7155   -0.9256    0.0000 O   0  0  0  0  0  0  0  0  0  0  0  0
    9.2194   -1.6587    0.0000 S   0  0  0  0  0  0  0  0  0  0  0  0
  2  3  1  0  0  0  0
  3  4  1  0  0  0  0
  4  5  1  0  0  0  0
  5  6  1  0  0  0  0
  2  6  1  0  0  0  0
  1  7  1  0  0  0  0
  8  9  1  0  0  0  0
  7  9  2  0  0  0  0
 10 12  1  0  0  0  0
  8 13  2  0  0  0  0
 15 16  2  0  0  0  0
 15 17  1  0  0  0  0
 17 18  2  0  0  0  0
 18 19  1  0  0  0  0
 20 14  3  0  0  0  0
 21 22  3  0  0  0  0
  7 23  1  0  0  0  0
 13 24  1  0  0  0  0
 23 24  2  0  0  0  0
 21 23  1  0  0  0  0
 22 20  1  0  0  0  0
 16 25  1  0  0  0  0
 19 25  2  0  0  0  0
 10 26  2  0  0  0  0
 11 27  2  0  0  0  0
 26 27  1  0  0  0  0
 10 28  1  0  0  0  0
 11 28  1  0  0  0  0
 15 28  1  0  0  0  0
  8 29  1  0  0  0  0
 12 29  1  0  0  0  0
  2 30  1  0  0  0  0
 11 30  1  0  0  0  0
M  END
> <ID>
SCHEMBL21141817

> <InChIKey>
KQDGQFAJXYFAPK-UHFFFAOYSA-N

> <MW>
415.52

> <Series_Name>
Series_3

$$$$
SCHEMBL21141825
  Mrv1719007181902232D 0   0.00000     0.00000     0

 37 40  0  0  0  0              1 V2000 
   10.8246   -4.3465    0.0000 C   0  0  0  0  0  0  0  0  0  0  0  0
   11.5496   -3.9723    0.0000 C   0  0  0  0  0  0  0  0  0  0  0  0
   11.5995   -3.1501    0.0000 C   0  0  0  0  0  0  0  0  0  0  0  0
   10.9154   -2.6890    0.0000 C   0  0  0  0  0  0  0  0  0  0  0  0
   10.1806   -3.0706    0.0000 C   0  0  0  0  0  0  0  0  0  0  0  0
   10.1210   -3.8774    0.0000 N   0  0  0  0  0  0  0  0  0  0  0  0
   10.9510   -1.8583    0.0000 N   0  0  0  0  0  0  0  0  0  0  0  0
    2.8246   -1.8912    0.0000 C   0  0  0  0  0  0  0  0  0  0  0  0
    2.1679   -1.3007    0.0000 O   0  0  0  0  0  0  0  0  0  0  0  0
    2.5395   -2.6758    0.0000 O   0  0  0  0  0  0  0  0  0  0  0  0
    4.9490   -2.0486    0.0000 C   0  0  0  0  0  0  0  0  0  0  0  0
    6.0020   -1.7662    0.0000 C   0  0  0  0  0  0  0  0  0  0  0  0
    5.9586   -0.2353    0.0000 C   0  0  0  0  0  0  0  0  0  0  0  0
    6.7550   -0.8292    0.0000 C   0  0  0  0  0  0  0  0  0  0  0  0
    7.5488   -0.6086    0.0000 C   0  0  0  0  0  0  0  0  0  0  0  0
    8.1317   -1.1928    0.0000 C   0  0  0  0  0  0  0  0  0  0  0  0
    8.9193   -0.9663    0.0000 O   0  0  0  0  0  0  0  0  0  0  0  0
    7.1247   -2.2091    0.0000 C   0  0  0  0  0  0  0  0  0  0  0  0
    7.9263   -1.9652    0.0000 C   0  0  0  0  0  0  0  0  0  0  0  0
    6.5345   -1.6235    0.0000 C   0  0  0  0  0  0  0  0  0  0  0  0
    4.1454   -2.2641    0.0000 C   0  0  0  0  0  0  0  0  0  0  0  0
    3.5368   -1.5237    0.0000 N   0  0  0  0  0  0  0  0  0  0  0  0
    0.3716   -1.7219    0.0000 C   0  0  0  0  0  0  0  0  0  0  0  0
    1.3956   -1.5441    0.0000 C   0  0  0  0  0  0  0  0  0  0  0  0
    0.9539   -0.7185    0.0000 C   0  0  0  0  0  0  0  0  0  0  0  0
    1.7033   -2.3042    0.0000 C   0  0  0  0  0  0  0  0  0  0  0  0
   11.4217   -0.6070    0.0000 N   0  0  0  0  0  0  0  0  0  0  0  0
   11.6434   -1.4161    0.0000 C   0  0  0  0  0  0  0  0  0  0  0  0
   12.4004   -1.7095    0.0000 S   0  0  0  0  0  0  0  0  0  0  0  0
    9.5202   -1.5695    0.0000 C   0  0  0  0  0  0  0  0  0  0  0  0
   10.3164   -1.3434    0.0000 C   0  0  0  0  0  0  0  0  0  0  0  0
   10.6042   -0.5698    0.0000 N   0  0  0  0  0  0  0  0  0  0  0  0
   13.7900   -0.0792    0.0000 C   0  0  0  0  0  0  0  0  0  0  0  0
   14.2962   -0.7260    0.0000 C   0  0  0  0  0  0  0  0  0  0  0  0
   13.8554   -1.4005    0.0000 C   0  0  0  0  0  0  0  0  0  0  0  0
   13.0619   -1.1993    0.0000 C   0  0  0  0  0  0  0  0  0  0  0  0
   13.0338   -0.3740    0.0000 C   0  0  0  0  0  0  0  0  0  0  0  0
  1  2  2  0  0  0  0
  1  6  1  0  0  0  0
  3  2  1  0  0  0  0
  4  3  2  0  0  0  0
  5  4  1  0  0  0  0
  6  5  2  0  0  0  0
  7  4  1  0  0  0  0
  7 31  1  0  0  0  0
  8  9  1  0  0  0  0
  8 22  1  0  0  0  0
  9 24  1  0  0  0  0
 10  8  2  0  0  0  0
 11 12  3  0  0  0  0
 12 20  1  0  0  0  0
 13 14  1  0  0  0  0
 14 15  2  0  0  0  0
 14 20  1  0  0  0  0
 16 15  1  0  0  0  0
 16 17  1  0  0  0  0
 18 19  1  0  0  0  0
 19 16  2  0  0  0  0
 20 18  2  0  0  0  0
 21 22  1  0  0  0  0
 21 11  1  0  0  0  0
 23 24  1  0  0  0  0
 25 24  1  0  0  0  0
 26 24  1  0  0  0  0
 27 28  2  0  0  0  0
 28 29  1  0  0  0  0
 28  7  1  0  0  0  0
 30 31  1  0  0  0  0
 30 17  1  0  0  0  0
 31 32  2  0  0  0  0
 32 27  1  0  0  0  0
 33 34  1  0  0  0  0
 33 37  1  0  0  0  0
 35 36  1  0  0  0  0
 35 34  1  0  0  0  0
 36 29  1  0  0  0  0
 37 36  1  0  0  0  0
M  END
> <ID>
SCHEMBL21141825

> <InChIKey>
ALIHQGWLTYNGBM-UHFFFAOYSA-N

> <MW>
519.66

> <Series_Name>
Series_3

$$$$
SCHEMBL21141826
  Mrv1719007181902232D 0   0.00000     0.00000     0

 37 41  0  0  0  0              1 V2000 
    8.7155   -4.3601    0.0000 C   0  0  0  0  0  0  0  0  0  0  0  0
    8.7782   -3.5319    0.0000 C   0  0  0  0  0  0  0  0  0  0  0  0
    9.5247   -2.3255    0.0000 N   0  0  0  0  0  0  0  0  0  0  0  0
    9.4949   -3.1645    0.0000 C   0  0  0  0  0  0  0  0  0  0  0  0
   10.1893   -3.6155    0.0000 C   0  0  0  0  0  0  0  0  0  0  0  0
   10.1308   -4.4284    0.0000 N   0  0  0  0  0  0  0  0  0  0  0  0
    9.4035   -4.8087    0.0000 C   0  0  0  0  0  0  0  0  0  0  0  0
    3.5428   -2.5118    0.0000 C   0  0  0  0  0  0  0  0  0  0  0  0
    4.5918   -2.2302    0.0000 C   0  0  0  0  0  0  0  0  0  0  0  0
    5.3392   -1.2954    0.0000 C   0  0  0  0  0  0  0  0  0  0  0  0
    5.1042   -2.0927    0.0000 C   0  0  0  0  0  0  0  0  0  0  0  0
    4.5397   -0.7051    0.0000 C   0  0  0  0  0  0  0  0  0  0  0  0
    6.1402   -1.0781    0.0000 C   0  0  0  0  0  0  0  0  0  0  0  0
    6.7204   -1.6617    0.0000 C   0  0  0  0  0  0  0  0  0  0  0  0
    7.4960   -1.4349    0.0000 O   0  0  0  0  0  0  0  0  0  0  0  0
    5.7083   -2.6758    0.0000 C   0  0  0  0  0  0  0  0  0  0  0  0
    2.7288   -2.7304    0.0000 C   0  0  0  0  0  0  0  0  0  0  0  0
    2.1400   -2.1400    0.0000 N   0  0  0  0  0  0  0  0  0  0  0  0
    6.4990   -2.4529    0.0000 C   0  0  0  0  0  0  0  0  0  0  0  0
    0.9648   -0.9772    0.0000 S   0  0  0  0  0  0  0  0  0  0  0  0
    0.7885   -1.7739    0.0000 C   0  0  0  0  0  0  0  0  0  0  0  0
    1.3596   -2.3588    0.0000 C   0  0  0  0  0  0  0  0  0  0  0  0
   10.0071   -1.0762    0.0000 N   0  0  0  0  0  0  0  0  0  0  0  0
   10.2279   -1.8924    0.0000 C   0  0  0  0  0  0  0  0  0  0  0  0
   10.9719   -2.1771    0.0000 S   0  0  0  0  0  0  0  0  0  0  0  0
    8.0971   -2.0346    0.0000 C   0  0  0  0  0  0  0  0  0  0  0  0
    8.8948   -1.8086    0.0000 C   0  0  0  0  0  0  0  0  0  0  0  0
    9.1783   -1.0390    0.0000 N   0  0  0  0  0  0  0  0  0  0  0  0
   11.6377   -1.6632    0.0000 C   0  0  0  0  0  0  0  0  0  0  0  0
   11.6050   -0.8419    0.0000 C   0  0  0  0  0  0  0  0  0  0  0  0
   12.3608   -0.5492    0.0000 C   0  0  0  0  0  0  0  0  0  0  0  0
   12.8848   -1.1864    0.0000 C   0  0  0  0  0  0  0  0  0  0  0  0
   12.4308   -1.8852    0.0000 C   0  0  0  0  0  0  0  0  0  0  0  0
    1.7838   -0.7711    0.0000 C   0  0  0  0  0  0  0  0  0  0  0  0
    2.3697   -1.3545    0.0000 C   0  0  0  0  0  0  0  0  0  0  0  0
    0.1732   -0.7546    0.0000 O   0  0  0  0  0  0  0  0  0  0  0  0
    0.7546   -0.1732    0.0000 O   0  0  0  0  0  0  0  0  0  0  0  0
  1  2  2  0  0  0  0
  1  7  1  0  0  0  0
  2  4  1  0  0  0  0
  3  4  1  0  0  0  0
  3 27  1  0  0  0  0
  4  5  2  0  0  0  0
  6  5  1  0  0  0  0
  7  6  2  0  0  0  0
  8  9  3  0  0  0  0
  9 11  1  0  0  0  0
 10 11  1  0  0  0  0
 10 13  2  0  0  0  0
 11 16  2  0  0  0  0
 12 10  1  0  0  0  0
 14 13  1  0  0  0  0
 14 15  1  0  0  0  0
 16 19  1  0  0  0  0
 17 18  1  0  0  0  0
 17  8  1  0  0  0  0
 19 14  2  0  0  0  0
 20 21  1  0  0  0  0
 20 34  1  0  0  0  0
 22 18  1  0  0  0  0
 22 21  1  0  0  0  0
 23 24  2  0  0  0  0
 24 25  1  0  0  0  0
 24  3  1  0  0  0  0
 25 29  1  0  0  0  0
 26 15  1  0  0  0  0
 26 27  1  0  0  0  0
 27 28  2  0  0  0  0
 28 23  1  0  0  0  0
 29 30  1  0  0  0  0
 31 32  1  0  0  0  0
 31 30  1  0  0  0  0
 32 33  1  0  0  0  0
 33 29  1  0  0  0  0
 34 35  1  0  0  0  0
 35 18  1  0  0  0  0
 36 20  2  0  0  0  0
 37 20  2  0  0  0  0
M  END
> <ID>
SCHEMBL21141826

> <InChIKey>
CDWXZNYRDCYPKN-UHFFFAOYSA-N

> <MW>
537.7

> <Series_Name>
Series_3

$$$$
SCHEMBL21141828
  Mrv1719007181902232D 0   0.00000     0.00000     0

 39 42  0  0  0  0              1 V2000 
    9.9544   -0.1484    0.0000 S   0  0  0  0  0  0  0  0  0  0  0  0
   10.8076   -0.3710    0.0000 S   0  0  0  0  0  0  0  0  0  0  0  0
    9.1816   -0.4452    0.0000 S   0  0  0  0  0  0  0  0  0  0  0  0
    8.5694   -1.1500    0.0000 S   0  0  0  0  0  0  0  0  0  0  0  0
    2.4237   -1.1933    0.0000 C   0  0  0  0  0  0  0  0  0  0  0  0
   11.4507   -1.1747    0.0000 S   0  0  0  0  0  0  0  0  0  0  0  0
   11.5372   -1.8054    0.0000 S   0  0  0  0  0  0  0  0  0  0  0  0
    9.7071   -2.8689    0.0000 S   0  0  0  0  0  0  0  0  0  0  0  0
   11.0920   -2.4979    0.0000 S   0  0  0  0  0  0  0  0  0  0  0  0
   10.6469   -2.9925    0.0000 S   0  0  0  0  0  0  0  0  0  0  0  0
    0.2473   -3.9632    0.0000 O   0  0  0  0  0  0  0  0  0  0  0  0
   10.2326   -0.9645    0.0000 C   0  0  0  0  0  0  0  0  0  0  0  0
    9.4660   -1.2675    0.0000 C   0  0  0  0  0  0  0  0  0  0  0  0
   10.7644   -1.6138    0.0000 C   0  0  0  0  0  0  0  0  0  0  0  0
    9.5185   -2.1022    0.0000 C   0  0  0  0  0  0  0  0  0  0  0  0
    3.2110   -1.7271    0.0000 C   0  0  0  0  0  0  0  0  0  0  0  0
    4.5918   -2.0857    0.0000 C   0  0  0  0  0  0  0  0  0  0  0  0
    4.0065   -1.5086    0.0000 C   0  0  0  0  0  0  0  0  0  0  0  0
   10.3253   -2.3124    0.0000 C   0  0  0  0  0  0  0  0  0  0  0  0
    6.7682   -2.2506    0.0000 C   0  0  0  0  0  0  0  0  0  0  0  0
    8.0995   -2.3165    0.0000 C   0  0  0  0  0  0  0  0  0  0  0  0
    4.3899   -2.8565    0.0000 C   0  0  0  0  0  0  0  0  0  0  0  0
    5.9603   -2.4608    0.0000 C   0  0  0  0  0  0  0  0  0  0  0  0
    0.6307   -3.1533    0.0000 C   0  0  0  0  0  0  0  0  0  0  0  0
    7.3617   -3.5902    0.0000 C   0  0  0  0  0  0  0  0  0  0  0  0
    6.6280   -3.9694    0.0000 C   0  0  0  0  0  0  0  0  0  0  0  0
    6.5909   -4.7979    0.0000 C   0  0  0  0  0  0  0  0  0  0  0  0
    7.2710   -5.2430    0.0000 C   0  0  0  0  0  0  0  0  0  0  0  0
    8.0625   -4.0560    0.0000 C   0  0  0  0  0  0  0  0  0  0  0  0
    2.1887   -2.7390    0.0000 C   0  0  0  0  0  0  0  0  0  0  0  0
    1.4159   -2.9431    0.0000 C   0  0  0  0  0  0  0  0  0  0  0  0
    3.0265   -2.5164    0.0000 C   0  0  0  0  0  0  0  0  0  0  0  0
    3.5860   -3.0419    0.0000 C   0  0  0  0  0  0  0  0  0  0  0  0
    8.8662   -2.6153    0.0000 S   0  0  0  0  0  0  0  0  0  0  0  0
    8.0191   -4.8659    0.0000 N   0  0  0  0  0  0  0  0  0  0  0  0
    7.0670   -1.4777    0.0000 N   0  0  0  0  0  0  0  0  0  0  0  0
    7.8955   -1.5272    0.0000 N   0  0  0  0  0  0  0  0  0  0  0  0
    5.3791   -1.8858    0.0000 O   0  0  0  0  0  0  0  0  0  0  0  0
    7.4132   -2.7637    0.0000 N   0  0  0  0  0  0  0  0  0  0  0  0
  1 12  1  0  0  0  0
  2 12  1  0  0  0  0
  3 13  1  0  0  0  0
 12 13  1  0  0  0  0
  4 13  1  0  0  0  0
 12 14  1  0  0  0  0
  6 14  1  0  0  0  0
  7 14  1  0  0  0  0
 13 15  1  0  0  0  0
  8 15  1  0  0  0  0
  5 16  1  0  0  0  0
 17 18  1  0  0  0  0
 16 18  2  0  0  0  0
 14 19  1  0  0  0  0
 15 19  1  0  0  0  0
  9 19  1  0  0  0  0
 10 19  1  0  0  0  0
 17 22  2  0  0  0  0
 20 23  1  0  0  0  0
 11 24  1  0  0  0  0
 25 26  1  0  0  0  0
 26 27  2  0  0  0  0
 27 28  1  0  0  0  0
 25 29  2  0  0  0  0
 30 31  3  0  0  0  0
 16 32  1  0  0  0  0
 22 33  1  0  0  0  0
 32 33  2  0  0  0  0
 30 32  1  0  0  0  0
 31 24  1  0  0  0  0
 15 34  1  0  0  0  0
 21 34  1  0  0  0  0
 28 35  2  0  0  0  0
 29 35  1  0  0  0  0
 20 36  2  0  0  0  0
 21 37  2  0  0  0  0
 36 37  1  0  0  0  0
 17 38  1  0  0  0  0
 23 38  1  0  0  0  0
 20 39  1  0  0  0  0
 21 39  1  0  0  0  0
 25 39  1  0  0  0  0
M  END
> <ID>
SCHEMBL21141828

> <InChIKey>
LFSDSYNQQKYUDC-UHFFFAOYSA-N

> <MW>
709.07

> <Series_Name>
Series_3

$$$$
SCHEMBL21141844
  Mrv1719007181902262D 0   0.00000     0.00000     0

 42 45  0  0  0  0              1 V2000 
   12.0593   -0.1479    0.0000 S   0  0  0  0  0  0  0  0  0  0  0  0
   12.9405   -0.4437    0.0000 S   0  0  0  0  0  0  0  0  0  0  0  0
   11.0549   -0.5176    0.0000 S   0  0  0  0  0  0  0  0  0  0  0  0
   10.6482   -1.1955    0.0000 S   0  0  0  0  0  0  0  0  0  0  0  0
   13.5260   -1.2201    0.0000 S   0  0  0  0  0  0  0  0  0  0  0  0
   13.5260   -1.9165    0.0000 S   0  0  0  0  0  0  0  0  0  0  0  0
    5.3302   -3.5555    0.0000 F   0  0  0  0  0  0  0  0  0  0  0  0
   11.6958   -2.8469    0.0000 S   0  0  0  0  0  0  0  0  0  0  0  0
   13.0884   -2.5511    0.0000 S   0  0  0  0  0  0  0  0  0  0  0  0
    1.0106   -3.0256    0.0000 O   0  0  0  0  0  0  0  0  0  0  0  0
    0.3081   -4.6401    0.0000 C   0  0  0  0  0  0  0  0  0  0  0  0
   12.3120   -0.9890    0.0000 C   0  0  0  0  0  0  0  0  0  0  0  0
   11.5264   -1.2509    0.0000 C   0  0  0  0  0  0  0  0  0  0  0  0
   12.8111   -1.6576    0.0000 C   0  0  0  0  0  0  0  0  0  0  0  0
   11.5448   -2.0829    0.0000 C   0  0  0  0  0  0  0  0  0  0  0  0
    6.6469   -1.8199    0.0000 C   0  0  0  0  0  0  0  0  0  0  0  0
    6.0513   -1.2201    0.0000 C   0  0  0  0  0  0  0  0  0  0  0  0
    8.8037   -2.0869    0.0000 C   0  0  0  0  0  0  0  0  0  0  0  0
   10.1182   -2.2225    0.0000 C   0  0  0  0  0  0  0  0  0  0  0  0
   12.3367   -2.3324    0.0000 C   0  0  0  0  0  0  0  0  0  0  0  0
    6.3963   -2.5881    0.0000 C   0  0  0  0  0  0  0  0  0  0  0  0
    5.5870   -2.7689    0.0000 C   0  0  0  0  0  0  0  0  0  0  0  0
    7.9985   -2.2677    0.0000 C   0  0  0  0  0  0  0  0  0  0  0  0
    2.6620   -2.6744    0.0000 C   0  0  0  0  0  0  0  0  0  0  0  0
    9.3213   -3.4426    0.0000 C   0  0  0  0  0  0  0  0  0  0  0  0
    1.6104   -3.6151    0.0000 C   0  0  0  0  0  0  0  0  0  0  0  0
    9.1570   -5.0900    0.0000 C   0  0  0  0  0  0  0  0  0  0  0  0
    9.8841   -4.7695    0.0000 C   0  0  0  0  0  0  0  0  0  0  0  0
    9.9950   -3.9438    0.0000 C   0  0  0  0  0  0  0  0  0  0  0  0
    8.5777   -3.7959    0.0000 C   0  0  0  0  0  0  0  0  0  0  0  0
    4.2149   -2.3416    0.0000 C   0  0  0  0  0  0  0  0  0  0  0  0
    3.4323   -2.5141    0.0000 C   0  0  0  0  0  0  0  0  0  0  0  0
    5.0653   -2.1475    0.0000 C   0  0  0  0  0  0  0  0  0  0  0  0
    5.3364   -1.4357    0.0000 C   0  0  0  0  0  0  0  0  0  0  0  0
    9.1384   -1.3372    0.0000 N   0  0  0  0  0  0  0  0  0  0  0  0
    9.9518   -1.4234    0.0000 N   0  0  0  0  0  0  0  0  0  0  0  0
    1.4480   -4.4182    0.0000 N   0  0  0  0  0  0  0  0  0  0  0  0
    8.4976   -4.6031    0.0000 N   0  0  0  0  0  0  0  0  0  0  0  0
    7.4316   -1.6576    0.0000 O   0  0  0  0  0  0  0  0  0  0  0  0
   10.8700   -2.5573    0.0000 S   0  0  0  0  0  0  0  0  0  0  0  0
    9.4219   -2.6436    0.0000 N   0  0  0  0  0  0  0  0  0  0  0  0
    2.3662   -3.4692    0.0000 O   0  0  0  0  0  0  0  0  0  0  0  0
  1 12  1  0  0  0  0
  2 12  1  0  0  0  0
  3 13  1  0  0  0  0
 12 13  1  0  0  0  0
  4 13  1  0  0  0  0
 12 14  1  0  0  0  0
  5 14  1  0  0  0  0
  6 14  1  0  0  0  0
 13 15  1  0  0  0  0
  8 15  1  0  0  0  0
 16 17  2  0  0  0  0
 14 20  1  0  0  0  0
 15 20  1  0  0  0  0
  9 20  1  0  0  0  0
 16 21  1  0  0  0  0
 21 22  2  0  0  0  0
  7 22  1  0  0  0  0
 18 23  1  0  0  0  0
 10 26  2  0  0  0  0
 27 28  1  0  0  0  0
 28 29  2  0  0  0  0
 25 29  1  0  0  0  0
 25 30  2  0  0  0  0
 31 32  3  0  0  0  0
 22 33  1  0  0  0  0
 17 34  1  0  0  0  0
 33 34  2  0  0  0  0
 31 33  1  0  0  0  0
 32 24  1  0  0  0  0
 18 35  2  0  0  0  0
 19 36  2  0  0  0  0
 35 36  1  0  0  0  0
 11 37  1  0  0  0  0
 26 37  1  0  0  0  0
 27 38  2  0  0  0  0
 30 38  1  0  0  0  0
 16 39  1  0  0  0  0
 23 39  1  0  0  0  0
 15 40  1  0  0  0  0
 19 40  1  0  0  0  0
 18 41  1  0  0  0  0
 19 41  1  0  0  0  0
 25 41  1  0  0  0  0
 24 42  1  0  0  0  0
 26 42  1  0  0  0  0
M  END
> <ID>
SCHEMBL21141844

> <InChIKey>
XCWQOGOLGWYFSZ-UHFFFAOYSA-N

> <MW>
738.03

> <Series_Name>
Series_3

$$$$
SCHEMBL21142305
  Mrv1719007181903512D 0   0.00000     0.00000     0

 35 39  0  0  0  0              1 V2000 
    8.0754   -3.0773    0.0000 C   0  0  0  0  0  0  0  0  0  0  0  0
    8.8078   -2.6976    0.0000 C   0  0  0  0  0  0  0  0  0  0  0  0
    8.8484   -1.8589    0.0000 N   0  0  0  0  0  0  0  0  0  0  0  0
    9.4556   -3.9657    0.0000 N   0  0  0  0  0  0  0  0  0  0  0  0
    9.4889   -3.1627    0.0000 C   0  0  0  0  0  0  0  0  0  0  0  0
    8.0389   -3.8988    0.0000 C   0  0  0  0  0  0  0  0  0  0  0  0
    8.7190   -4.3533    0.0000 C   0  0  0  0  0  0  0  0  0  0  0  0
    2.8349   -2.0576    0.0000 C   0  0  0  0  0  0  0  0  0  0  0  0
    3.8986   -1.7679    0.0000 C   0  0  0  0  0  0  0  0  0  0  0  0
    4.4299   -1.6232    0.0000 C   0  0  0  0  0  0  0  0  0  0  0  0
    4.6492   -0.8315    0.0000 C   0  0  0  0  0  0  0  0  0  0  0  0
    3.8542   -0.2355    0.0000 C   0  0  0  0  0  0  0  0  0  0  0  0
    5.4466   -0.6174    0.0000 C   0  0  0  0  0  0  0  0  0  0  0  0
    6.0318   -1.1972    0.0000 C   0  0  0  0  0  0  0  0  0  0  0  0
    6.8160   -0.9790    0.0000 O   0  0  0  0  0  0  0  0  0  0  0  0
    5.0200   -2.2115    0.0000 C   0  0  0  0  0  0  0  0  0  0  0  0
    2.0488   -2.2717    0.0000 C   0  0  0  0  0  0  0  0  0  0  0  0
    1.4500   -1.6730    0.0000 N   0  0  0  0  0  0  0  0  0  0  0  0
    5.8140   -1.9870    0.0000 C   0  0  0  0  0  0  0  0  0  0  0  0
    0.0736   -1.3150    0.0000 C   0  0  0  0  0  0  0  0  0  0  0  0
    0.2726   -0.5081    0.0000 O   0  0  0  0  0  0  0  0  0  0  0  0
    0.6630   -1.9017    0.0000 C   0  0  0  0  0  0  0  0  0  0  0  0
    9.3318   -0.6197    0.0000 N   0  0  0  0  0  0  0  0  0  0  0  0
    9.5542   -1.4256    0.0000 C   0  0  0  0  0  0  0  0  0  0  0  0
   10.2984   -1.7102    0.0000 S   0  0  0  0  0  0  0  0  0  0  0  0
    7.4136   -1.5723    0.0000 C   0  0  0  0  0  0  0  0  0  0  0  0
    8.2151   -1.3610    0.0000 C   0  0  0  0  0  0  0  0  0  0  0  0
    8.5014   -0.5701    0.0000 N   0  0  0  0  0  0  0  0  0  0  0  0
   10.9263   -0.3780    0.0000 C   0  0  0  0  0  0  0  0  0  0  0  0
   11.6826   -0.0820    0.0000 C   0  0  0  0  0  0  0  0  0  0  0  0
   12.1972   -0.7153    0.0000 C   0  0  0  0  0  0  0  0  0  0  0  0
   11.7473   -1.4113    0.0000 C   0  0  0  0  0  0  0  0  0  0  0  0
   10.9735   -1.2036    0.0000 C   0  0  0  0  0  0  0  0  0  0  0  0
    1.0844   -0.3059    0.0000 C   0  0  0  0  0  0  0  0  0  0  0  0
    1.6725   -0.8895    0.0000 C   0  0  0  0  0  0  0  0  0  0  0  0
  1  2  1  0  0  0  0
  2  5  2  0  0  0  0
  3  2  1  0  0  0  0
  3 27  1  0  0  0  0
  4  5  1  0  0  0  0
  6  1  2  0  0  0  0
  6  7  1  0  0  0  0
  7  4  2  0  0  0  0
  8  9  3  0  0  0  0
  9 10  1  0  0  0  0
 10 11  1  0  0  0  0
 10 16  2  0  0  0  0
 11 13  2  0  0  0  0
 12 11  1  0  0  0  0
 13 14  1  0  0  0  0
 14 15  1  0  0  0  0
 16 19  1  0  0  0  0
 17 18  1  0  0  0  0
 17  8  1  0  0  0  0
 19 14  2  0  0  0  0
 20 21  1  0  0  0  0
 22 18  1  0  0  0  0
 22 20  1  0  0  0  0
 23 24  2  0  0  0  0
 24 25  1  0  0  0  0
 24  3  1  0  0  0  0
 26 27  1  0  0  0  0
 26 15  1  0  0  0  0
 27 28  2  0  0  0  0
 28 23  1  0  0  0  0
 29 30  1  0  0  0  0
 29 33  1  0  0  0  0
 31 32  1  0  0  0  0
 31 30  1  0  0  0  0
 33 25  1  0  0  0  0
 33 32  1  0  0  0  0
 34 21  1  0  0  0  0
 34 35  1  0  0  0  0
 35 18  1  0  0  0  0
M  END
> <ID>
SCHEMBL21142305

> <InChIKey>
WMYBFCIWGDUJHR-UHFFFAOYSA-N

> <MW>
489.64

> <Series_Name>
Series_3

$$$$
SCHEMBL21142308
  Mrv1719007181903522D 0   0.00000     0.00000     0

 40 43  0  0  0  0              1 V2000 
   10.2559   -0.1474    0.0000 S   0  0  0  0  0  0  0  0  0  0  0  0
   11.1100   -0.3564    0.0000 S   0  0  0  0  0  0  0  0  0  0  0  0
    9.2911   -0.5223    0.0000 S   0  0  0  0  0  0  0  0  0  0  0  0
    8.9101   -1.1921    0.0000 S   0  0  0  0  0  0  0  0  0  0  0  0
    2.7775   -1.1860    0.0000 C   0  0  0  0  0  0  0  0  0  0  0  0
   11.7491   -1.1675    0.0000 S   0  0  0  0  0  0  0  0  0  0  0  0
   11.8352   -1.7821    0.0000 S   0  0  0  0  0  0  0  0  0  0  0  0
   10.0162   -2.8390    0.0000 S   0  0  0  0  0  0  0  0  0  0  0  0
   11.3927   -2.4702    0.0000 S   0  0  0  0  0  0  0  0  0  0  0  0
   11.0056   -2.9741    0.0000 S   0  0  0  0  0  0  0  0  0  0  0  0
    0.5531   -3.9758    0.0000 C   0  0  0  0  0  0  0  0  0  0  0  0
    0.2458   -2.5625    0.0000 O   0  0  0  0  0  0  0  0  0  0  0  0
   10.5447   -0.9525    0.0000 C   0  0  0  0  0  0  0  0  0  0  0  0
    9.7766   -1.2536    0.0000 C   0  0  0  0  0  0  0  0  0  0  0  0
   11.0670   -1.5946    0.0000 C   0  0  0  0  0  0  0  0  0  0  0  0
    3.5477   -1.7124    0.0000 C   0  0  0  0  0  0  0  0  0  0  0  0
    9.8319   -2.0770    0.0000 C   0  0  0  0  0  0  0  0  0  0  0  0
    4.9241   -2.0811    0.0000 C   0  0  0  0  0  0  0  0  0  0  0  0
    4.3260   -1.4993    0.0000 C   0  0  0  0  0  0  0  0  0  0  0  0
   10.6215   -2.2952    0.0000 C   0  0  0  0  0  0  0  0  0  0  0  0
    7.0953   -2.2286    0.0000 C   0  0  0  0  0  0  0  0  0  0  0  0
    8.4063   -2.2900    0.0000 C   0  0  0  0  0  0  0  0  0  0  0  0
    4.6701   -2.8881    0.0000 C   0  0  0  0  0  0  0  0  0  0  0  0
    6.3047   -2.4457    0.0000 C   0  0  0  0  0  0  0  0  0  0  0  0
    0.9750   -3.1298    0.0000 C   0  0  0  0  0  0  0  0  0  0  0  0
    7.6934   -3.5559    0.0000 C   0  0  0  0  0  0  0  0  0  0  0  0
    8.3694   -4.0188    0.0000 C   0  0  0  0  0  0  0  0  0  0  0  0
    6.9561   -3.9450    0.0000 C   0  0  0  0  0  0  0  0  0  0  0  0
    6.9438   -4.7807    0.0000 C   0  0  0  0  0  0  0  0  0  0  0  0
    7.5829   -5.1986    0.0000 C   0  0  0  0  0  0  0  0  0  0  0  0
    2.5440   -2.7160    0.0000 C   0  0  0  0  0  0  0  0  0  0  0  0
    1.7759   -2.9188    0.0000 C   0  0  0  0  0  0  0  0  0  0  0  0
    3.3766   -2.4949    0.0000 C   0  0  0  0  0  0  0  0  0  0  0  0
    3.9389   -3.0233    0.0000 C   0  0  0  0  0  0  0  0  0  0  0  0
    9.1805   -2.5993    0.0000 S   0  0  0  0  0  0  0  0  0  0  0  0
    7.3924   -1.4687    0.0000 N   0  0  0  0  0  0  0  0  0  0  0  0
    8.2035   -1.5055    0.0000 N   0  0  0  0  0  0  0  0  0  0  0  0
    5.7148   -1.8619    0.0000 O   0  0  0  0  0  0  0  0  0  0  0  0
    7.7365   -2.7468    0.0000 N   0  0  0  0  0  0  0  0  0  0  0  0
    8.3387   -4.8238    0.0000 N   0  0  0  0  0  0  0  0  0  0  0  0
  1 13  1  0  0  0  0
  2 13  1  0  0  0  0
  3 14  1  0  0  0  0
 13 14  1  0  0  0  0
  4 14  1  0  0  0  0
 13 15  1  0  0  0  0
  6 15  1  0  0  0  0
  7 15  1  0  0  0  0
  5 16  1  0  0  0  0
 14 17  1  0  0  0  0
  8 17  1  0  0  0  0
 18 19  1  0  0  0  0
 16 19  2  0  0  0  0
 15 20  1  0  0  0  0
 17 20  1  0  0  0  0
  9 20  1  0  0  0  0
 10 20  1  0  0  0  0
 18 23  2  0  0  0  0
 21 24  1  0  0  0  0
 11 25  1  0  0  0  0
 12 25  1  0  0  0  0
 26 27  2  0  0  0  0
 26 28  1  0  0  0  0
 28 29  2  0  0  0  0
 29 30  1  0  0  0  0
 31 32  3  0  0  0  0
 16 33  1  0  0  0  0
 23 34  1  0  0  0  0
 33 34  2  0  0  0  0
 31 33  1  0  0  0  0
 32 25  1  0  0  0  0
 17 35  1  0  0  0  0
 22 35  1  0  0  0  0
 21 36  2  0  0  0  0
 22 37  2  0  0  0  0
 36 37  1  0  0  0  0
 18 38  1  0  0  0  0
 24 38  1  0  0  0  0
 21 39  1  0  0  0  0
 22 39  1  0  0  0  0
 26 39  1  0  0  0  0
 27 40  1  0  0  0  0
 30 40  2  0  0  0  0
M  END
> <ID>
SCHEMBL21142308

> <InChIKey>
QDHNITOPSCAWES-UHFFFAOYSA-N

> <MW>
723.1

> <Series_Name>
Series_3

$$$$
SCHEMBL21142315
  Mrv1719007181903542D 0   0.00000     0.00000     0

 49 55  0  0  1  0              1 V2000 
    0.1452   -8.6500    0.0000 C   0  0  1  0  0  0  0  0  0  0  0  0
    0.1375   -7.8463    0.0000 C   0  0  0  0  0  0  0  0  0  0  0  0
    1.3789   -8.0758    0.0000 C   0  0  1  0  0  0  0  0  0  0  0  0
    0.5683   -8.1264    0.0000 C   0  0  0  0  0  0  0  0  0  0  0  0
    0.5513   -9.3587    0.0000 C   0  0  0  0  0  0  0  0  0  0  0  0
    1.3812   -9.2566    0.0000 C   0  0  0  0  0  0  0  0  0  0  0  0
    1.3734   -8.5313    0.0000 C   0  0  0  0  0  0  0  0  0  0  0  0
    0.9472   -7.8004    0.0000 C   0  0  1  0  0  0  0  0  0  0  0  0
    1.3786   -7.0952    0.0000 C   0  0  0  0  0  0  0  0  0  0  0  0
    1.5940   -6.3060    0.0000 C   0  0  0  0  0  0  0  0  0  0  0  0
    2.4061   -6.0386    0.0000 C   0  0  0  0  0  0  0  0  0  0  0  0
    2.9604   -6.6640    0.0000 O   0  0  0  0  0  0  0  0  0  0  0  0
    1.7809   -8.6466    0.0000 C   0  0  0  0  0  0  0  0  0  0  0  0
    3.3915   -5.0806    0.0000 C   0  0  0  0  0  0  0  0  0  0  0  0
    3.6203   -4.2846    0.0000 C   0  0  0  0  0  0  0  0  0  0  0  0
    4.5335   -4.0504    0.0000 N   0  0  0  0  0  0  0  0  0  0  0  0
    2.4526   -5.2767    0.0000 N   0  0  0  0  0  0  0  0  0  0  0  0
   12.4362   -1.8579    0.0000 N   0  0  0  0  0  0  0  0  0  0  0  0
   12.3997   -2.6941    0.0000 C   0  0  0  0  0  0  0  0  0  0  0  0
   13.0431   -3.9513    0.0000 N   0  0  0  0  0  0  0  0  0  0  0  0
   13.0998   -3.1516    0.0000 C   0  0  0  0  0  0  0  0  0  0  0  0
   11.6708   -3.0717    0.0000 C   0  0  0  0  0  0  0  0  0  0  0  0
   11.6275   -3.8980    0.0000 C   0  0  0  0  0  0  0  0  0  0  0  0
   12.3108   -4.3446    0.0000 C   0  0  0  0  0  0  0  0  0  0  0  0
    4.6035   -3.3153    0.0000 C   0  0  0  0  0  0  0  0  0  0  0  0
    4.0256   -2.6755    0.0000 O   0  0  0  0  0  0  0  0  0  0  0  0
    5.4006   -3.0472    0.0000 O   0  0  0  0  0  0  0  0  0  0  0  0
    8.0232   -1.6137    0.0000 C   0  0  0  0  0  0  0  0  0  0  0  0
    8.2609   -0.8211    0.0000 C   0  0  0  0  0  0  0  0  0  0  0  0
    9.0432   -0.6093    0.0000 C   0  0  0  0  0  0  0  0  0  0  0  0
    9.6241   -1.1951    0.0000 C   0  0  0  0  0  0  0  0  0  0  0  0
   10.4048   -0.9662    0.0000 O   0  0  0  0  0  0  0  0  0  0  0  0
    8.6113   -2.2061    0.0000 C   0  0  0  0  0  0  0  0  0  0  0  0
    8.1875   -2.9852    0.0000 C   0  0  0  0  0  0  0  0  0  0  0  0
    7.2070   -1.8364    0.0000 C   0  0  0  0  0  0  0  0  0  0  0  0
    6.1614   -2.1216    0.0000 C   0  0  0  0  0  0  0  0  0  0  0  0
    5.6500   -2.2610    0.0000 C   0  0  0  0  0  0  0  0  0  0  0  0
    9.4022   -1.9909    0.0000 C   0  0  0  0  0  0  0  0  0  0  0  0
   12.9192   -0.6070    0.0000 N   0  0  0  0  0  0  0  0  0  0  0  0
   13.1388   -1.4194    0.0000 C   0  0  0  0  0  0  0  0  0  0  0  0
   13.8854   -1.6970    0.0000 S   0  0  0  0  0  0  0  0  0  0  0  0
   11.0034   -1.5663    0.0000 C   0  0  0  0  0  0  0  0  0  0  0  0
   11.8033   -1.3477    0.0000 C   0  0  0  0  0  0  0  0  0  0  0  0
   12.0894   -0.5574    0.0000 N   0  0  0  0  0  0  0  0  0  0  0  0
   15.3401   -1.4056    0.0000 C   0  0  0  0  0  0  0  0  0  0  0  0
   14.5549   -1.1973    0.0000 C   0  0  0  0  0  0  0  0  0  0  0  0
   15.7866   -0.7136    0.0000 C   0  0  0  0  0  0  0  0  0  0  0  0
   15.2669   -0.0825    0.0000 C   0  0  0  0  0  0  0  0  0  0  0  0
   14.5169   -0.3709    0.0000 C   0  0  0  0  0  0  0  0  0  0  0  0
  1  2  1  1  0  0  0
  3  4  1  1  0  0  0
  1  4  1  0  0  0  0
  5  6  1  0  0  0  0
  1  5  1  0  0  0  0
  6  7  1  0  0  0  0
  8  7  1  6  0  0  0
  8  9  1  0  0  0  0
  8  2  1  0  0  0  0
  9 10  1  0  0  0  0
  3  9  1  0  0  0  0
 10 11  1  0  0  0  0
 11 12  2  0  0  0  0
 13  6  1  0  0  0  0
  3 13  1  0  0  0  0
 14 15  1  0  0  0  0
 16 15  1  0  0  0  0
 17 14  1  0  0  0  0
 17 11  1  0  0  0  0
 18 19  1  0  0  0  0
 18 43  1  0  0  0  0
 19 21  2  0  0  0  0
 20 21  1  0  0  0  0
 22 19  1  0  0  0  0
 23 22  2  0  0  0  0
 23 24  1  0  0  0  0
 24 20  2  0  0  0  0
 25 16  1  0  0  0  0
 25 27  1  0  0  0  0
 26 25  2  0  0  0  0
 28 29  1  0  0  0  0
 28 33  2  0  0  0  0
 29 30  2  0  0  0  0
 30 31  1  0  0  0  0
 31 32  1  0  0  0  0
 33 34  1  0  0  0  0
 33 38  1  0  0  0  0
 35 36  3  0  0  0  0
 35 28  1  0  0  0  0
 37 27  1  0  0  0  0
 37 36  1  0  0  0  0
 38 31  2  0  0  0  0
 39 40  2  0  0  0  0
 40 41  1  0  0  0  0
 40 18  1  0  0  0  0
 41 46  1  0  0  0  0
 42 43  1  0  0  0  0
 42 32  1  0  0  0  0
 43 44  2  0  0  0  0
 44 39  1  0  0  0  0
 45 46  1  0  0  0  0
 45 47  1  0  0  0  0
 47 48  1  0  0  0  0
 48 49  1  0  0  0  0
 49 46  1  0  0  0  0
M  END
> <ID>
SCHEMBL21142315

> <InChIKey>
WBXWPRUTSGOEBX-WGQBMIEMSA-N

> <MW>
682.88

> <Series_Name>
Series_3

$$$$
SCHEMBL21142370
  Mrv1719007181904282D 0   0.00000     0.00000     0

 36 39  0  0  0  0              1 V2000 
    0.3697   -3.8324    0.0000 C   0  0  0  0  0  0  0  0  0  0  0  0
    1.3793   -4.0543    0.0000 C   0  0  0  0  0  0  0  0  0  0  0  0
    1.6227   -3.2493    0.0000 C   0  0  0  0  0  0  0  0  0  0  0  0
    0.9858   -2.6618    0.0000 O   0  0  0  0  0  0  0  0  0  0  0  0
    2.5015   -3.0315    0.0000 N   0  0  0  0  0  0  0  0  0  0  0  0
    2.2736   -4.2514    0.0000 C   0  0  0  0  0  0  0  0  0  0  0  0
    0.9488   -4.8306    0.0000 C   0  0  0  0  0  0  0  0  0  0  0  0
    9.2317   -4.3226    0.0000 C   0  0  0  0  0  0  0  0  0  0  0  0
    9.9699   -3.9410    0.0000 C   0  0  0  0  0  0  0  0  0  0  0  0
    9.3258   -2.6840    0.0000 C   0  0  0  0  0  0  0  0  0  0  0  0
   10.0126   -3.1510    0.0000 C   0  0  0  0  0  0  0  0  0  0  0  0
    8.5397   -3.8570    0.0000 N   0  0  0  0  0  0  0  0  0  0  0  0
    8.6046   -3.0518    0.0000 C   0  0  0  0  0  0  0  0  0  0  0  0
    9.3654   -1.8485    0.0000 N   0  0  0  0  0  0  0  0  0  0  0  0
    3.3798   -2.0452    0.0000 C   0  0  0  0  0  0  0  0  0  0  0  0
    4.4335   -1.7558    0.0000 C   0  0  0  0  0  0  0  0  0  0  0  0
    4.3993   -0.2341    0.0000 C   0  0  0  0  0  0  0  0  0  0  0  0
    5.1878   -0.8264    0.0000 C   0  0  0  0  0  0  0  0  0  0  0  0
    5.9825   -0.6068    0.0000 C   0  0  0  0  0  0  0  0  0  0  0  0
    6.5609   -1.1866    0.0000 C   0  0  0  0  0  0  0  0  0  0  0  0
    7.3445   -0.9612    0.0000 O   0  0  0  0  0  0  0  0  0  0  0  0
    2.5968   -2.2603    0.0000 C   0  0  0  0  0  0  0  0  0  0  0  0
    6.3419   -1.9731    0.0000 C   0  0  0  0  0  0  0  0  0  0  0  0
    4.9708   -1.6083    0.0000 C   0  0  0  0  0  0  0  0  0  0  0  0
    5.5616   -2.1937    0.0000 C   0  0  0  0  0  0  0  0  0  0  0  0
    9.8337   -0.6038    0.0000 N   0  0  0  0  0  0  0  0  0  0  0  0
   10.0502   -1.4045    0.0000 C   0  0  0  0  0  0  0  0  0  0  0  0
   10.8072   -1.7005    0.0000 S   0  0  0  0  0  0  0  0  0  0  0  0
    7.9421   -1.5611    0.0000 C   0  0  0  0  0  0  0  0  0  0  0  0
    8.7267   -1.3426    0.0000 C   0  0  0  0  0  0  0  0  0  0  0  0
    9.0203   -0.5668    0.0000 N   0  0  0  0  0  0  0  0  0  0  0  0
   11.4740   -1.1977    0.0000 C   0  0  0  0  0  0  0  0  0  0  0  0
   11.4302   -0.3713    0.0000 C   0  0  0  0  0  0  0  0  0  0  0  0
   12.1811   -0.0762    0.0000 C   0  0  0  0  0  0  0  0  0  0  0  0
   12.7038   -0.7145    0.0000 C   0  0  0  0  0  0  0  0  0  0  0  0
   12.2323   -1.3977    0.0000 C   0  0  0  0  0  0  0  0  0  0  0  0
  1  2  1  0  0  0  0
  2  6  1  0  0  0  0
  2  7  1  0  0  0  0
  3  2  1  0  0  0  0
  4  3  2  0  0  0  0
  5  3  1  0  0  0  0
  8  9  2  0  0  0  0
  8 12  1  0  0  0  0
 10 11  2  0  0  0  0
 11  9  1  0  0  0  0
 12 13  2  0  0  0  0
 13 10  1  0  0  0  0
 14 10  1  0  0  0  0
 14 30  1  0  0  0  0
 15 16  3  0  0  0  0
 16 24  1  0  0  0  0
 17 18  1  0  0  0  0
 18 19  2  0  0  0  0
 18 24  1  0  0  0  0
 20 19  1  0  0  0  0
 20 21  1  0  0  0  0
 22  5  1  0  0  0  0
 22 15  1  0  0  0  0
 23 20  2  0  0  0  0
 24 25  2  0  0  0  0
 25 23  1  0  0  0  0
 26 27  2  0  0  0  0
 27 28  1  0  0  0  0
 27 14  1  0  0  0  0
 29 30  1  0  0  0  0
 29 21  1  0  0  0  0
 30 31  2  0  0  0  0
 31 26  1  0  0  0  0
 32 33  1  0  0  0  0
 32 28  1  0  0  0  0
 32 36  1  0  0  0  0
 33 34  1  0  0  0  0
 34 35  1  0  0  0  0
 35 36  1  0  0  0  0
M  END
> <ID>
SCHEMBL21142370

> <InChIKey>
VHMYLCYGLIQBEC-UHFFFAOYSA-N

> <MW>
503.67

> <Series_Name>
Series_3

$$$$
SCHEMBL21150268
  Mrv1719007181923192D 0   0.00000     0.00000     0

 37 40  0  0  1  0              1 V2000 
    0.0737   -4.5391    0.0000 C   0  0  0  0  0  0  0  0  0  0  0  0
    0.2934   -5.3525    0.0000 C   0  0  0  0  0  0  0  0  0  0  0  0
    0.6649   -3.9596    0.0000 C   0  0  0  0  0  0  0  0  0  0  0  0
    0.4343   -3.1517    0.0000 F   0  0  0  0  0  0  0  0  0  0  0  0
    1.4563   -4.1732    0.0000 C   0  0  0  0  0  0  0  0  0  0  0  0
    2.0522   -3.5888    0.0000 C   0  0  0  0  0  0  0  0  0  0  0  0
    1.8364   -2.7859    0.0000 C   0  0  0  0  0  0  0  0  0  0  0  0
    2.4160   -2.2031    0.0000 C   0  0  0  0  0  0  0  0  0  0  0  0
    2.3700   -1.3649    0.0000 N   0  0  0  0  0  0  0  0  0  0  0  0
    3.6604   -1.7123    0.0000 N   0  0  0  0  0  0  0  0  0  0  0  0
    3.2139   -2.4233    0.0000 C   0  0  0  0  0  0  0  0  0  0  0  0
    3.4317   -3.2075    0.0000 C   0  0  0  0  0  0  0  0  0  0  0  0
    2.8346   -3.8054    0.0000 C   0  0  0  0  0  0  0  0  0  0  0  0
    1.6756   -4.9644    0.0000 C   0  0  0  0  0  0  0  0  0  0  0  0
    1.0633   -5.5491    0.0000 C   0  0  0  0  0  0  0  0  0  0  0  0
    6.9796   -4.5856    0.0000 C   0  0  0  0  0  0  0  0  0  0  0  0
    6.1296   -4.5786    0.0000 O   0  0  0  0  0  0  0  0  0  0  0  0
    4.9171   -3.8812    0.0000 C   0  0  0  0  0  0  0  0  0  0  0  0
    5.7260   -3.8706    0.0000 C   0  0  0  0  0  0  0  0  0  0  0  0
    4.4995   -3.1552    0.0000 C   0  0  0  0  0  0  0  0  0  0  0  0
    4.8983   -2.4382    0.0000 C   0  0  0  0  0  0  0  0  0  0  0  0
    4.4888   -1.7242    0.0000 C   0  0  2  0  0  0  0  0  0  0  0  0
    4.9184   -1.0341    0.0000 C   0  0  0  0  0  0  0  0  0  0  0  0
    5.7078   -0.9927    0.0000 S   0  0  0  0  0  0  0  0  0  0  0  0
    5.7366   -2.4398    0.0000 C   0  0  0  0  0  0  0  0  0  0  0  0
    6.1411   -3.1588    0.0000 C   0  0  0  0  0  0  0  0  0  0  0  0
    6.9610   -3.1517    0.0000 O   0  0  0  0  0  0  0  0  0  0  0  0
    7.3924   -3.8698    0.0000 C   0  0  0  0  0  0  0  0  0  0  0  0
    8.2204   -3.8781    0.0000 C   0  0  0  0  0  0  0  0  0  0  0  0
    1.6528   -0.9703    0.0000 C   0  0  0  0  0  0  0  0  0  0  0  0
    0.9393   -1.3778    0.0000 C   0  0  0  0  0  0  0  0  0  0  0  0
    0.2109   -1.7744    0.0000 N   0  0  0  0  0  0  0  0  0  0  0  0
    5.7202   -1.8240    0.0000 O   0  0  0  0  0  0  0  0  0  0  0  0
    3.1200   -1.0824    0.0000 C   0  0  0  0  0  0  0  0  0  0  0  0
    3.3378   -0.2730    0.0000 O   0  0  0  0  0  0  0  0  0  0  0  0
    6.5577   -1.0120    0.0000 C   0  0  0  0  0  0  0  0  0  0  0  0
    5.7202   -0.1737    0.0000 O   0  0  0  0  0  0  0  0  0  0  0  0
  1  2  2  0  0  0  0
  1  3  1  0  0  0  0
  2 15  1  0  0  0  0
  3  5  2  0  0  0  0
  4  3  1  0  0  0  0
  5  6  1  0  0  0  0
  5 14  1  0  0  0  0
  6 13  2  0  0  0  0
  7  6  1  0  0  0  0
  7  8  2  0  0  0  0
  8  9  1  0  0  0  0
  8 11  1  0  0  0  0
  9 34  1  0  0  0  0
 10 11  1  0  0  0  0
 10 34  1  0  0  0  0
 11 12  2  0  0  0  0
 13 12  1  0  0  0  0
 15 14  2  0  0  0  0
 16 17  1  0  0  0  0
 18 19  2  0  0  0  0
 18 20  1  0  0  0  0
 19 17  1  0  0  0  0
 20 21  2  0  0  0  0
 22 21  1  0  0  0  0
 21 25  1  0  0  0  0
 22 10  1  0  0  0  0
 22 23  1  1  0  0  0
 23 24  1  0  0  0  0
 24 33  2  0  0  0  0
 24 37  2  0  0  0  0
 25 26  2  0  0  0  0
 26 27  1  0  0  0  0
 26 19  1  0  0  0  0
 27 28  1  0  0  0  0
 28 29  1  0  0  0  0
 30  9  1  0  0  0  0
 30 31  1  0  0  0  0
 31 32  3  0  0  0  0
 34 35  2  0  0  0  0
 36 24  1  0  0  0  0
M  END
> <ID>
SCHEMBL21150268

> <InChIKey>
ZUYPDSLCBVJNFE-DEOSSOPVSA-N

> <MW>
523.58

> <Series_Name>
Series_5

$$$$
SCHEMBL21150269
  Mrv1719007181923192D 0   0.00000     0.00000     0

 34 37  0  0  1  0              1 V2000 
    0.1493   -4.3296    0.0000 F   0  0  0  0  0  0  0  0  0  0  0  0
    0.9651   -4.5537    0.0000 C   0  0  0  0  0  0  0  0  0  0  0  0
    1.5413   -3.9667    0.0000 C   0  0  0  0  0  0  0  0  0  0  0  0
    2.3448   -4.1927    0.0000 C   0  0  0  0  0  0  0  0  0  0  0  0
    2.9493   -3.5977    0.0000 C   0  0  0  0  0  0  0  0  0  0  0  0
    2.7248   -2.7927    0.0000 C   0  0  0  0  0  0  0  0  0  0  0  0
    3.3054   -2.2061    0.0000 C   0  0  0  0  0  0  0  0  0  0  0  0
    3.1228   -1.3685    0.0000 N   0  0  0  0  0  0  0  0  0  0  0  0
    4.0966   -2.4246    0.0000 C   0  0  0  0  0  0  0  0  0  0  0  0
    4.5536   -1.7169    0.0000 N   0  0  0  0  0  0  0  0  0  0  0  0
    3.7211   -3.8105    0.0000 C   0  0  0  0  0  0  0  0  0  0  0  0
    4.3238   -3.2144    0.0000 C   0  0  0  0  0  0  0  0  0  0  0  0
    1.9596   -5.5663    0.0000 C   0  0  0  0  0  0  0  0  0  0  0  0
    2.5716   -4.9808    0.0000 C   0  0  0  0  0  0  0  0  0  0  0  0
    1.1835   -5.3592    0.0000 C   0  0  0  0  0  0  0  0  0  0  0  0
    7.8816   -4.6104    0.0000 C   0  0  0  0  0  0  0  0  0  0  0  0
    7.0418   -4.5909    0.0000 O   0  0  0  0  0  0  0  0  0  0  0  0
    6.6439   -3.8778    0.0000 C   0  0  0  0  0  0  0  0  0  0  0  0
    5.8064   -3.8864    0.0000 C   0  0  0  0  0  0  0  0  0  0  0  0
    5.4052   -3.1709    0.0000 C   0  0  0  0  0  0  0  0  0  0  0  0
    5.8055   -2.4465    0.0000 C   0  0  0  0  0  0  0  0  0  0  0  0
    5.3971   -1.7348    0.0000 C   0  0  2  0  0  0  0  0  0  0  0  0
    5.8181   -1.0369    0.0000 C   0  0  0  0  0  0  0  0  0  0  0  0
    6.6188   -0.9953    0.0000 S   0  0  0  0  0  0  0  0  0  0  0  0
    7.0451   -3.1576    0.0000 C   0  0  0  0  0  0  0  0  0  0  0  0
    7.8630   -3.1601    0.0000 O   0  0  0  0  0  0  0  0  0  0  0  0
    6.6345   -2.4526    0.0000 C   0  0  0  0  0  0  0  0  0  0  0  0
    8.3008   -3.8846    0.0000 C   0  0  0  0  0  0  0  0  0  0  0  0
    9.1258   -3.8883    0.0000 C   0  0  0  0  0  0  0  0  0  0  0  0
    6.6188   -1.8289    0.0000 O   0  0  0  0  0  0  0  0  0  0  0  0
    4.0834   -1.1151    0.0000 C   0  0  0  0  0  0  0  0  0  0  0  0
    4.2425   -0.2737    0.0000 O   0  0  0  0  0  0  0  0  0  0  0  0
    7.4711   -1.0147    0.0000 C   0  0  0  0  0  0  0  0  0  0  0  0
    6.6188   -0.1742    0.0000 O   0  0  0  0  0  0  0  0  0  0  0  0
  1  2  1  0  0  0  0
  2 15  2  0  0  0  0
  3  2  1  0  0  0  0
  3  4  2  0  0  0  0
  5  4  1  0  0  0  0
  5 11  1  0  0  0  0
  6  5  2  0  0  0  0
  6  7  1  0  0  0  0
  7  9  2  0  0  0  0
  8  7  1  0  0  0  0
  8 31  1  0  0  0  0
  9 10  1  0  0  0  0
  9 12  1  0  0  0  0
 10 31  1  0  0  0  0
 11 12  2  0  0  0  0
 13 14  2  0  0  0  0
 14  4  1  0  0  0  0
 15 13  1  0  0  0  0
 16 17  1  0  0  0  0
 17 18  1  0  0  0  0
 18 25  2  0  0  0  0
 19 18  1  0  0  0  0
 20 19  2  0  0  0  0
 20 21  1  0  0  0  0
 21 27  2  0  0  0  0
 22 10  1  0  0  0  0
 22 23  1  1  0  0  0
 22 21  1  0  0  0  0
 24 23  1  0  0  0  0
 24 30  2  0  0  0  0
 24 33  1  0  0  0  0
 25 26  1  0  0  0  0
 26 28  1  0  0  0  0
 27 25  1  0  0  0  0
 28 29  1  0  0  0  0
 31 32  2  0  0  0  0
 34 24  2  0  0  0  0
M  END
> <ID>
SCHEMBL21150269

> <InChIKey>
GVGCAFWTJYVXEC-QFIPXVFZSA-N

> <MW>
484.54

> <Series_Name>
Series_5

$$$$
SCHEMBL21150284
  Mrv1719007181923202D 0   0.00000     0.00000     0

 36 39  0  0  1  0              1 V2000 
    0.6759   -3.9526    0.0000 C   0  0  0  0  0  0  0  0  0  0  0  0
    0.0771   -4.5233    0.0000 C   0  0  0  0  0  0  0  0  0  0  0  0
    0.4327   -3.1402    0.0000 O   0  0  0  0  0  0  0  0  0  0  0  0
    1.4542   -4.1642    0.0000 C   0  0  0  0  0  0  0  0  0  0  0  0
    2.0344   -3.5785    0.0000 C   0  0  0  0  0  0  0  0  0  0  0  0
    1.8381   -2.7818    0.0000 C   0  0  0  0  0  0  0  0  0  0  0  0
    2.4049   -2.1998    0.0000 C   0  0  0  0  0  0  0  0  0  0  0  0
    2.2253   -1.3599    0.0000 N   0  0  0  0  0  0  0  0  0  0  0  0
    3.1849   -2.4042    0.0000 C   0  0  0  0  0  0  0  0  0  0  0  0
    3.6470   -1.7061    0.0000 N   0  0  0  0  0  0  0  0  0  0  0  0
    3.4181   -3.1958    0.0000 C   0  0  0  0  0  0  0  0  0  0  0  0
    2.8232   -3.7970    0.0000 C   0  0  0  0  0  0  0  0  0  0  0  0
    1.6695   -4.9467    0.0000 C   0  0  0  0  0  0  0  0  0  0  0  0
    1.0582   -5.5360    0.0000 C   0  0  0  0  0  0  0  0  0  0  0  0
    0.2935   -5.3229    0.0000 C   0  0  0  0  0  0  0  0  0  0  0  0
    4.8872   -3.8661    0.0000 C   0  0  0  0  0  0  0  0  0  0  0  0
    5.7132   -3.8673    0.0000 C   0  0  0  0  0  0  0  0  0  0  0  0
    4.4755   -3.1512    0.0000 C   0  0  0  0  0  0  0  0  0  0  0  0
    4.8805   -2.4392    0.0000 C   0  0  0  0  0  0  0  0  0  0  0  0
    4.4807   -1.7077    0.0000 C   0  0  2  0  0  0  0  0  0  0  0  0
    4.8617   -1.0436    0.0000 C   0  0  0  0  0  0  0  0  0  0  0  0
    5.6870   -1.0014    0.0000 S   0  0  0  0  0  0  0  0  0  0  0  0
    5.7189   -2.4442    0.0000 C   0  0  0  0  0  0  0  0  0  0  0  0
    6.1230   -3.1446    0.0000 C   0  0  0  0  0  0  0  0  0  0  0  0
    6.9356   -3.1402    0.0000 O   0  0  0  0  0  0  0  0  0  0  0  0
    6.1074   -4.5620    0.0000 O   0  0  0  0  0  0  0  0  0  0  0  0
    8.1904   -3.8638    0.0000 C   0  0  0  0  0  0  0  0  0  0  0  0
    7.3604   -3.8662    0.0000 C   0  0  0  0  0  0  0  0  0  0  0  0
    0.8239   -1.7806    0.0000 C   0  0  0  0  0  0  0  0  0  0  0  0
    1.0321   -2.5592    0.0000 C   0  0  0  0  0  0  0  0  0  0  0  0
    5.6993   -1.8174    0.0000 O   0  0  0  0  0  0  0  0  0  0  0  0
    3.1638   -1.1117    0.0000 C   0  0  0  0  0  0  0  0  0  0  0  0
    3.3257   -0.2720    0.0000 O   0  0  0  0  0  0  0  0  0  0  0  0
    6.5338   -1.0083    0.0000 C   0  0  0  0  0  0  0  0  0  0  0  0
    5.6993   -0.1731    0.0000 O   0  0  0  0  0  0  0  0  0  0  0  0
    5.7241   -5.2755    0.0000 C   0  0  0  0  0  0  0  0  0  0  0  0
  1  2  1  0  0  0  0
  1  4  2  0  0  0  0
  2 15  2  0  0  0  0
  3  1  1  0  0  0  0
  4  5  1  0  0  0  0
  4 13  1  0  0  0  0
  5 12  1  0  0  0  0
  6  5  2  0  0  0  0
  6  7  1  0  0  0  0
  7  9  2  0  0  0  0
  8  7  1  0  0  0  0
  8 32  1  0  0  0  0
  9 10  1  0  0  0  0
  9 11  1  0  0  0  0
 10 32  1  0  0  0  0
 12 11  2  0  0  0  0
 14 13  2  0  0  0  0
 15 14  1  0  0  0  0
 16 17  1  0  0  0  0
 17 24  2  0  0  0  0
 18 16  2  0  0  0  0
 18 19  1  0  0  0  0
 19 23  2  0  0  0  0
 20 10  1  0  0  0  0
 20 21  1  1  0  0  0
 20 19  1  0  0  0  0
 21 22  1  0  0  0  0
 22 31  2  0  0  0  0
 22 35  2  0  0  0  0
 23 24  1  0  0  0  0
 24 25  1  0  0  0  0
 26 17  1  0  0  0  0
 26 36  1  0  0  0  0
 27 28  1  0  0  0  0
 28 25  1  0  0  0  0
 29 30  1  0  0  0  0
 30  3  1  0  0  0  0
 32 33  2  0  0  0  0
 34 22  1  0  0  0  0
M  END
> <ID>
SCHEMBL21150284

> <InChIKey>
LGPMWAZZUANAHX-QHCPKHFHSA-N

> <MW>
510.61

> <Series_Name>
Series_5

$$$$
SCHEMBL21150285
  Mrv1719007181923202D 0   0.00000     0.00000     0

 34 37  0  0  1  0              1 V2000 
    1.1094   -3.9490    0.0000 C   0  0  0  0  0  0  0  0  0  0  0  0
    0.5355   -4.5223    0.0000 C   0  0  0  0  0  0  0  0  0  0  0  0
    2.4959   -3.5791    0.0000 C   0  0  0  0  0  0  0  0  0  0  0  0
    1.9119   -4.1644    0.0000 C   0  0  0  0  0  0  0  0  0  0  0  0
    2.8732   -2.1986    0.0000 C   0  0  0  0  0  0  0  0  0  0  0  0
    2.2928   -2.7899    0.0000 C   0  0  0  0  0  0  0  0  0  0  0  0
    2.6829   -1.3600    0.0000 N   0  0  0  0  0  0  0  0  0  0  0  0
    3.6646   -2.4269    0.0000 C   0  0  0  0  0  0  0  0  0  0  0  0
    4.1047   -1.7061    0.0000 N   0  0  0  0  0  0  0  0  0  0  0  0
    3.2812   -3.7968    0.0000 C   0  0  0  0  0  0  0  0  0  0  0  0
    3.8732   -3.1959    0.0000 C   0  0  0  0  0  0  0  0  0  0  0  0
    2.1277   -4.9464    0.0000 C   0  0  0  0  0  0  0  0  0  0  0  0
    1.5208   -5.5369    0.0000 C   0  0  0  0  0  0  0  0  0  0  0  0
    0.7498   -5.3249    0.0000 C   0  0  0  0  0  0  0  0  0  0  0  0
    0.1484   -5.8974    0.0000 F   0  0  0  0  0  0  0  0  0  0  0  0
    7.4119   -4.5814    0.0000 C   0  0  0  0  0  0  0  0  0  0  0  0
    6.5650   -4.5621    0.0000 O   0  0  0  0  0  0  0  0  0  0  0  0
    5.3461   -3.8496    0.0000 C   0  0  0  0  0  0  0  0  0  0  0  0
    6.1718   -3.8675    0.0000 C   0  0  0  0  0  0  0  0  0  0  0  0
    4.9305   -1.7152    0.0000 C   0  0  1  0  0  0  0  0  0  0  0  0
    5.3622   -1.0301    0.0000 C   0  0  0  0  0  0  0  0  0  0  0  0
    6.1446   -1.0015    0.0000 S   0  0  0  0  0  0  0  0  0  0  0  0
    5.3455   -2.4365    0.0000 C   0  0  0  0  0  0  0  0  0  0  0  0
    6.1772   -2.4437    0.0000 C   0  0  0  0  0  0  0  0  0  0  0  0
    6.5813   -3.1446    0.0000 C   0  0  0  0  0  0  0  0  0  0  0  0
    7.3933   -3.1403    0.0000 O   0  0  0  0  0  0  0  0  0  0  0  0
    4.9427   -3.1479    0.0000 C   0  0  0  0  0  0  0  0  0  0  0  0
    7.8233   -3.8559    0.0000 C   0  0  0  0  0  0  0  0  0  0  0  0
    8.6482   -3.8641    0.0000 C   0  0  0  0  0  0  0  0  0  0  0  0
    6.1570   -1.8174    0.0000 O   0  0  0  0  0  0  0  0  0  0  0  0
    3.6116   -1.0970    0.0000 C   0  0  0  0  0  0  0  0  0  0  0  0
    3.7956   -0.2720    0.0000 O   0  0  0  0  0  0  0  0  0  0  0  0
    7.0039   -1.0084    0.0000 C   0  0  0  0  0  0  0  0  0  0  0  0
    6.1570   -0.1731    0.0000 O   0  0  0  0  0  0  0  0  0  0  0  0
  1  2  1  0  0  0  0
  1  4  2  0  0  0  0
  2 14  2  0  0  0  0
  3  4  1  0  0  0  0
  3 10  1  0  0  0  0
  4 12  1  0  0  0  0
  5  6  1  0  0  0  0
  5  8  2  0  0  0  0
  6  3  2  0  0  0  0
  7  5  1  0  0  0  0
  7 31  1  0  0  0  0
  8  9  1  0  0  0  0
  9 31  1  0  0  0  0
 10 11  2  0  0  0  0
 11  8  1  0  0  0  0
 13 12  2  0  0  0  0
 14 13  1  0  0  0  0
 14 15  1  0  0  0  0
 16 17  1  0  0  0  0
 17 19  1  0  0  0  0
 18 19  1  0  0  0  0
 19 25  2  0  0  0  0
 20  9  1  0  0  0  0
 20 21  1  1  0  0  0
 20 23  1  0  0  0  0
 21 22  1  0  0  0  0
 22 30  2  0  0  0  0
 22 34  2  0  0  0  0
 23 24  2  0  0  0  0
 23 27  1  0  0  0  0
 24 25  1  0  0  0  0
 25 26  1  0  0  0  0
 26 28  1  0  0  0  0
 27 18  2  0  0  0  0
 28 29  1  0  0  0  0
 31 32  2  0  0  0  0
 33 22  1  0  0  0  0
M  END
> <ID>
SCHEMBL21150285

> <InChIKey>
JBTWRVOJCUMARK-QFIPXVFZSA-N

> <MW>
484.54

> <Series_Name>
Series_5

$$$$
SCHEMBL21150288
  Mrv1719007181923202D 0   0.00000     0.00000     0

 35 38  0  0  1  0              1 V2000 
    0.6652   -3.9570    0.0000 C   0  0  0  0  0  0  0  0  0  0  0  0
    0.0770   -4.5355    0.0000 C   0  0  0  0  0  0  0  0  0  0  0  0
    0.4338   -3.1485    0.0000 O   0  0  0  0  0  0  0  0  0  0  0  0
    1.4600   -4.1735    0.0000 C   0  0  0  0  0  0  0  0  0  0  0  0
    2.0398   -3.5880    0.0000 C   0  0  0  0  0  0  0  0  0  0  0  0
    1.8440   -2.7890    0.0000 C   0  0  0  0  0  0  0  0  0  0  0  0
    2.4178   -2.2044    0.0000 C   0  0  0  0  0  0  0  0  0  0  0  0
    2.2312   -1.3635    0.0000 N   0  0  0  0  0  0  0  0  0  0  0  0
    3.2040   -2.4086    0.0000 C   0  0  0  0  0  0  0  0  0  0  0  0
    3.6567   -1.7106    0.0000 N   0  0  0  0  0  0  0  0  0  0  0  0
    3.4271   -3.2043    0.0000 C   0  0  0  0  0  0  0  0  0  0  0  0
    2.8301   -3.8077    0.0000 C   0  0  0  0  0  0  0  0  0  0  0  0
    1.6747   -4.9599    0.0000 C   0  0  0  0  0  0  0  0  0  0  0  0
    1.0610   -5.5507    0.0000 C   0  0  0  0  0  0  0  0  0  0  0  0
    0.2942   -5.3370    0.0000 C   0  0  0  0  0  0  0  0  0  0  0  0
    4.8999   -3.8763    0.0000 C   0  0  0  0  0  0  0  0  0  0  0  0
    5.7283   -3.8775    0.0000 C   0  0  0  0  0  0  0  0  0  0  0  0
    4.4872   -3.1598    0.0000 C   0  0  0  0  0  0  0  0  0  0  0  0
    4.8933   -2.4456    0.0000 C   0  0  0  0  0  0  0  0  0  0  0  0
    4.4884   -1.7220    0.0000 C   0  0  2  0  0  0  0  0  0  0  0  0
    4.8761   -1.0504    0.0000 C   0  0  0  0  0  0  0  0  0  0  0  0
    5.7020   -1.0040    0.0000 S   0  0  0  0  0  0  0  0  0  0  0  0
    5.7340   -2.4507    0.0000 C   0  0  0  0  0  0  0  0  0  0  0  0
    6.1392   -3.1529    0.0000 C   0  0  0  0  0  0  0  0  0  0  0  0
    6.9540   -3.1485    0.0000 O   0  0  0  0  0  0  0  0  0  0  0  0
    6.1235   -4.5740    0.0000 O   0  0  0  0  0  0  0  0  0  0  0  0
    8.2121   -3.8740    0.0000 C   0  0  0  0  0  0  0  0  0  0  0  0
    7.3793   -3.8765    0.0000 C   0  0  0  0  0  0  0  0  0  0  0  0
    5.7144   -1.8222    0.0000 O   0  0  0  0  0  0  0  0  0  0  0  0
    3.0779   -1.0954    0.0000 C   0  0  0  0  0  0  0  0  0  0  0  0
    3.3345   -0.2727    0.0000 O   0  0  0  0  0  0  0  0  0  0  0  0
    6.5511   -1.0110    0.0000 C   0  0  0  0  0  0  0  0  0  0  0  0
    5.7144   -0.1735    0.0000 O   0  0  0  0  0  0  0  0  0  0  0  0
    5.7392   -5.2895    0.0000 C   0  0  0  0  0  0  0  0  0  0  0  0
    0.6617   -2.3706    0.0000 C   0  0  0  0  0  0  0  0  0  0  0  0
  1  2  1  0  0  0  0
  1  4  2  0  0  0  0
  2 15  2  0  0  0  0
  3  1  1  0  0  0  0
  4  5  1  0  0  0  0
  4 13  1  0  0  0  0
  5 12  2  0  0  0  0
  6  5  1  0  0  0  0
  6  7  2  0  0  0  0
  7  8  1  0  0  0  0
  7  9  1  0  0  0  0
  8 30  1  0  0  0  0
  9 11  2  0  0  0  0
 10  9  1  0  0  0  0
 10 30  1  0  0  0  0
 12 11  1  0  0  0  0
 14 13  2  0  0  0  0
 15 14  1  0  0  0  0
 16 17  2  0  0  0  0
 16 18  1  0  0  0  0
 17 26  1  0  0  0  0
 18 19  2  0  0  0  0
 20 19  1  0  0  0  0
 19 23  1  0  0  0  0
 20 10  1  0  0  0  0
 20 21  1  1  0  0  0
 21 22  1  0  0  0  0
 22 29  2  0  0  0  0
 22 33  2  0  0  0  0
 23 24  2  0  0  0  0
 24 25  1  0  0  0  0
 24 17  1  0  0  0  0
 26 34  1  0  0  0  0
 27 28  1  0  0  0  0
 28 25  1  0  0  0  0
 30 31  2  0  0  0  0
 32 22  1  0  0  0  0
 35  3  1  0  0  0  0
M  END
> <ID>
SCHEMBL21150288

> <InChIKey>
POFIPTOYSVZPRD-QFIPXVFZSA-N

> <MW>
496.58

> <Series_Name>
Series_5

$$$$
SCHEMBL21150289
  Mrv1719007181923202D 0   0.00000     0.00000     0

 37 40  0  0  1  0              1 V2000 
    0.5935   -4.5223    0.0000 C   0  0  0  0  0  0  0  0  0  0  0  0
    0.8032   -5.3293    0.0000 C   0  0  0  0  0  0  0  0  0  0  0  0
    1.1801   -3.9427    0.0000 C   0  0  0  0  0  0  0  0  0  0  0  0
    0.9538   -3.1306    0.0000 C   0  0  0  0  0  0  0  0  0  0  0  0
    0.1484   -2.9180    0.0000 F   0  0  0  0  0  0  0  0  0  0  0  0
    0.5317   -2.4234    0.0000 F   0  0  0  0  0  0  0  0  0  0  0  0
    1.1498   -2.3368    0.0000 F   0  0  0  0  0  0  0  0  0  0  0  0
    1.9622   -4.1656    0.0000 C   0  0  0  0  0  0  0  0  0  0  0  0
    2.5675   -3.5834    0.0000 C   0  0  0  0  0  0  0  0  0  0  0  0
    2.3369   -2.7753    0.0000 C   0  0  0  0  0  0  0  0  0  0  0  0
    2.9316   -2.2034    0.0000 C   0  0  0  0  0  0  0  0  0  0  0  0
    2.7324   -1.3601    0.0000 N   0  0  0  0  0  0  0  0  0  0  0  0
    3.6936   -2.4066    0.0000 C   0  0  0  0  0  0  0  0  0  0  0  0
    4.1543   -1.7063    0.0000 N   0  0  0  0  0  0  0  0  0  0  0  0
    3.9319   -3.2043    0.0000 C   0  0  0  0  0  0  0  0  0  0  0  0
    3.3421   -3.7980    0.0000 C   0  0  0  0  0  0  0  0  0  0  0  0
    2.1837   -4.9518    0.0000 C   0  0  0  0  0  0  0  0  0  0  0  0
    1.5762   -5.5319    0.0000 C   0  0  0  0  0  0  0  0  0  0  0  0
    6.6271   -4.5623    0.0000 O   0  0  0  0  0  0  0  0  0  0  0  0
    6.2255   -5.2769    0.0000 C   0  0  0  0  0  0  0  0  0  0  0  0
    5.3990   -3.8622    0.0000 C   0  0  0  0  0  0  0  0  0  0  0  0
    6.2316   -3.8530    0.0000 C   0  0  0  0  0  0  0  0  0  0  0  0
    4.9981   -3.1197    0.0000 C   0  0  0  0  0  0  0  0  0  0  0  0
    5.3993   -2.4312    0.0000 C   0  0  0  0  0  0  0  0  0  0  0  0
    4.9955   -1.7237    0.0000 C   0  0  2  0  0  0  0  0  0  0  0  0
    5.3729   -1.0503    0.0000 C   0  0  0  0  0  0  0  0  0  0  0  0
    6.2067   -0.9891    0.0000 S   0  0  0  0  0  0  0  0  0  0  0  0
    6.6352   -3.1518    0.0000 C   0  0  0  0  0  0  0  0  0  0  0  0
    7.4431   -3.1405    0.0000 O   0  0  0  0  0  0  0  0  0  0  0  0
    6.2223   -2.4373    0.0000 C   0  0  0  0  0  0  0  0  0  0  0  0
    7.8781   -3.8604    0.0000 C   0  0  0  0  0  0  0  0  0  0  0  0
    8.6981   -3.8641    0.0000 C   0  0  0  0  0  0  0  0  0  0  0  0
    6.2067   -1.8175    0.0000 O   0  0  0  0  0  0  0  0  0  0  0  0
    3.5979   -1.0741    0.0000 C   0  0  0  0  0  0  0  0  0  0  0  0
    3.8452   -0.2720    0.0000 O   0  0  0  0  0  0  0  0  0  0  0  0
    7.0537   -1.0083    0.0000 C   0  0  0  0  0  0  0  0  0  0  0  0
    6.2067   -0.1731    0.0000 O   0  0  0  0  0  0  0  0  0  0  0  0
  1  2  2  0  0  0  0
  1  3  1  0  0  0  0
  2 18  1  0  0  0  0
  3  8  2  0  0  0  0
  4  5  1  0  0  0  0
  4  3  1  0  0  0  0
  6  4  1  0  0  0  0
  7  4  1  0  0  0  0
  8  9  1  0  0  0  0
  9 16  2  0  0  0  0
 10  9  1  0  0  0  0
 10 11  2  0  0  0  0
 11 12  1  0  0  0  0
 11 13  1  0  0  0  0
 12 34  1  0  0  0  0
 13 15  2  0  0  0  0
 14 13  1  0  0  0  0
 14 34  1  0  0  0  0
 16 15  1  0  0  0  0
 17  8  1  0  0  0  0
 18 17  2  0  0  0  0
 19 20  1  0  0  0  0
 21 22  2  0  0  0  0
 21 23  1  0  0  0  0
 22 19  1  0  0  0  0
 23 24  2  0  0  0  0
 25 24  1  0  0  0  0
 24 30  1  0  0  0  0
 25 14  1  0  0  0  0
 25 26  1  1  0  0  0
 27 26  1  0  0  0  0
 27 33  2  0  0  0  0
 27 36  1  0  0  0  0
 28 29  1  0  0  0  0
 28 22  1  0  0  0  0
 29 31  1  0  0  0  0
 30 28  2  0  0  0  0
 31 32  1  0  0  0  0
 34 35  2  0  0  0  0
 37 27  2  0  0  0  0
M  END
> <ID>
SCHEMBL21150289

> <InChIKey>
AVPSWZAQCXKJCX-QFIPXVFZSA-N

> <MW>
534.55

> <Series_Name>
Series_5

$$$$
SCHEMBL21150290
  Mrv1719007181923202D 0   0.00000     0.00000     0

 34 37  0  0  1  0              1 V2000 
    0.0725   -4.5190    0.0000 C   0  0  0  0  0  0  0  0  0  0  0  0
    0.2913   -5.3172    0.0000 C   0  0  0  0  0  0  0  0  0  0  0  0
    0.6499   -3.9431    0.0000 C   0  0  0  0  0  0  0  0  0  0  0  0
    0.3267   -3.1397    0.0000 Cl  0  0  0  0  0  0  0  0  0  0  0  0
    1.4509   -4.1617    0.0000 C   0  0  0  0  0  0  0  0  0  0  0  0
    2.0354   -3.5749    0.0000 C   0  0  0  0  0  0  0  0  0  0  0  0
    1.8278   -2.7751    0.0000 C   0  0  0  0  0  0  0  0  0  0  0  0
    2.4086   -2.1970    0.0000 C   0  0  0  0  0  0  0  0  0  0  0  0
    2.2231   -1.3585    0.0000 N   0  0  0  0  0  0  0  0  0  0  0  0
    3.2019   -2.4262    0.0000 C   0  0  0  0  0  0  0  0  0  0  0  0
    3.6434   -1.7043    0.0000 N   0  0  0  0  0  0  0  0  0  0  0  0
    2.8122   -3.7849    0.0000 C   0  0  0  0  0  0  0  0  0  0  0  0
    3.4128   -3.2049    0.0000 C   0  0  0  0  0  0  0  0  0  0  0  0
    1.0777   -5.5418    0.0000 C   0  0  0  0  0  0  0  0  0  0  0  0
    1.6612   -4.9423    0.0000 C   0  0  0  0  0  0  0  0  0  0  0  0
    4.8785   -3.8579    0.0000 C   0  0  0  0  0  0  0  0  0  0  0  0
    5.7069   -3.8598    0.0000 C   0  0  0  0  0  0  0  0  0  0  0  0
    4.4779   -3.1367    0.0000 C   0  0  0  0  0  0  0  0  0  0  0  0
    4.8818   -2.4347    0.0000 C   0  0  0  0  0  0  0  0  0  0  0  0
    4.4768   -1.7314    0.0000 C   0  0  2  0  0  0  0  0  0  0  0  0
    4.8992   -1.0290    0.0000 C   0  0  0  0  0  0  0  0  0  0  0  0
    5.6812   -1.0004    0.0000 S   0  0  0  0  0  0  0  0  0  0  0  0
    6.1095   -3.1441    0.0000 C   0  0  0  0  0  0  0  0  0  0  0  0
    6.9286   -3.1370    0.0000 O   0  0  0  0  0  0  0  0  0  0  0  0
    6.1011   -4.5697    0.0000 O   0  0  0  0  0  0  0  0  0  0  0  0
    5.7086   -2.4470    0.0000 C   0  0  0  0  0  0  0  0  0  0  0  0
    8.1821   -3.8598    0.0000 C   0  0  0  0  0  0  0  0  0  0  0  0
    7.3516   -3.8617    0.0000 C   0  0  0  0  0  0  0  0  0  0  0  0
    5.6935   -1.8278    0.0000 O   0  0  0  0  0  0  0  0  0  0  0  0
    3.1762   -1.1247    0.0000 C   0  0  0  0  0  0  0  0  0  0  0  0
    3.3223   -0.2717    0.0000 O   0  0  0  0  0  0  0  0  0  0  0  0
    6.5272   -1.0073    0.0000 C   0  0  0  0  0  0  0  0  0  0  0  0
    5.6935   -0.1729    0.0000 O   0  0  0  0  0  0  0  0  0  0  0  0
    5.7084   -5.2743    0.0000 C   0  0  0  0  0  0  0  0  0  0  0  0
  1  2  2  0  0  0  0
  1  3  1  0  0  0  0
  2 14  1  0  0  0  0
  3  5  2  0  0  0  0
  4  3  1  0  0  0  0
  5  6  1  0  0  0  0
  5 15  1  0  0  0  0
  6 12  2  0  0  0  0
  7  6  1  0  0  0  0
  7  8  2  0  0  0  0
  8  9  1  0  0  0  0
  8 10  1  0  0  0  0
  9 30  1  0  0  0  0
 10 13  2  0  0  0  0
 11 10  1  0  0  0  0
 11 30  1  0  0  0  0
 12 13  1  0  0  0  0
 14 15  2  0  0  0  0
 16 17  2  0  0  0  0
 16 18  1  0  0  0  0
 17 25  1  0  0  0  0
 18 19  2  0  0  0  0
 19 26  1  0  0  0  0
 20 19  1  0  0  0  0
 20 11  1  0  0  0  0
 20 21  1  1  0  0  0
 21 22  1  0  0  0  0
 22 29  2  0  0  0  0
 22 33  2  0  0  0  0
 23 24  1  0  0  0  0
 23 17  1  0  0  0  0
 25 34  1  0  0  0  0
 26 23  2  0  0  0  0
 27 28  1  0  0  0  0
 28 24  1  0  0  0  0
 30 31  2  0  0  0  0
 32 22  1  0  0  0  0
M  END
> <ID>
SCHEMBL21150290

> <InChIKey>
LTXACJJVNGAQJF-QFIPXVFZSA-N

> <MW>
500.99

> <Series_Name>
Series_5

$$$$
SCHEMBL21150291
  Mrv1719007181923202D 0   0.00000     0.00000     0

 34 37  0  0  1  0              1 V2000 
    0.0726   -4.5295    0.0000 C   0  0  0  0  0  0  0  0  0  0  0  0
    0.2919   -5.3297    0.0000 C   0  0  0  0  0  0  0  0  0  0  0  0
    0.6514   -3.9524    0.0000 C   0  0  0  0  0  0  0  0  0  0  0  0
    0.4436   -3.1630    0.0000 C   0  0  0  0  0  0  0  0  0  0  0  0
    1.4543   -4.1715    0.0000 C   0  0  0  0  0  0  0  0  0  0  0  0
    2.0402   -3.5833    0.0000 C   0  0  0  0  0  0  0  0  0  0  0  0
    1.8321   -2.7816    0.0000 C   0  0  0  0  0  0  0  0  0  0  0  0
    2.4143   -2.2021    0.0000 C   0  0  0  0  0  0  0  0  0  0  0  0
    2.2283   -1.3617    0.0000 N   0  0  0  0  0  0  0  0  0  0  0  0
    3.2095   -2.4318    0.0000 C   0  0  0  0  0  0  0  0  0  0  0  0
    3.6520   -1.7083    0.0000 N   0  0  0  0  0  0  0  0  0  0  0  0
    2.8189   -3.7937    0.0000 C   0  0  0  0  0  0  0  0  0  0  0  0
    3.4208   -3.2125    0.0000 C   0  0  0  0  0  0  0  0  0  0  0  0
    1.0802   -5.5548    0.0000 C   0  0  0  0  0  0  0  0  0  0  0  0
    1.6651   -4.9540    0.0000 C   0  0  0  0  0  0  0  0  0  0  0  0
    4.8900   -3.8670    0.0000 C   0  0  0  0  0  0  0  0  0  0  0  0
    5.7203   -3.8689    0.0000 C   0  0  0  0  0  0  0  0  0  0  0  0
    4.4884   -3.1441    0.0000 C   0  0  0  0  0  0  0  0  0  0  0  0
    4.8933   -2.4404    0.0000 C   0  0  0  0  0  0  0  0  0  0  0  0
    4.4873   -1.7355    0.0000 C   0  0  2  0  0  0  0  0  0  0  0  0
    4.9108   -1.0314    0.0000 C   0  0  0  0  0  0  0  0  0  0  0  0
    5.6945   -1.0027    0.0000 S   0  0  0  0  0  0  0  0  0  0  0  0
    6.1239   -3.1515    0.0000 C   0  0  0  0  0  0  0  0  0  0  0  0
    6.9448   -3.1443    0.0000 O   0  0  0  0  0  0  0  0  0  0  0  0
    6.1154   -4.5804    0.0000 O   0  0  0  0  0  0  0  0  0  0  0  0
    5.7220   -2.4527    0.0000 C   0  0  0  0  0  0  0  0  0  0  0  0
    8.2014   -3.8689    0.0000 C   0  0  0  0  0  0  0  0  0  0  0  0
    7.3689   -3.8708    0.0000 C   0  0  0  0  0  0  0  0  0  0  0  0
    5.7069   -1.8321    0.0000 O   0  0  0  0  0  0  0  0  0  0  0  0
    3.1836   -1.1273    0.0000 C   0  0  0  0  0  0  0  0  0  0  0  0
    3.3301   -0.2724    0.0000 O   0  0  0  0  0  0  0  0  0  0  0  0
    6.5424   -1.0097    0.0000 C   0  0  0  0  0  0  0  0  0  0  0  0
    5.7069   -0.1733    0.0000 O   0  0  0  0  0  0  0  0  0  0  0  0
    5.7218   -5.2866    0.0000 C   0  0  0  0  0  0  0  0  0  0  0  0
  1  2  2  0  0  0  0
  1  3  1  0  0  0  0
  2 14  1  0  0  0  0
  3  5  2  0  0  0  0
  4  3  1  0  0  0  0
  5  6  1  0  0  0  0
  5 15  1  0  0  0  0
  6 12  2  0  0  0  0
  7  6  1  0  0  0  0
  7  8  2  0  0  0  0
  8  9  1  0  0  0  0
  8 10  1  0  0  0  0
  9 30  1  0  0  0  0
 10 13  2  0  0  0  0
 11 10  1  0  0  0  0
 11 30  1  0  0  0  0
 12 13  1  0  0  0  0
 14 15  2  0  0  0  0
 16 17  2  0  0  0  0
 16 18  1  0  0  0  0
 17 25  1  0  0  0  0
 18 19  2  0  0  0  0
 19 26  1  0  0  0  0
 20 19  1  0  0  0  0
 20 11  1  0  0  0  0
 20 21  1  1  0  0  0
 21 22  1  0  0  0  0
 22 29  2  0  0  0  0
 22 33  2  0  0  0  0
 23 24  1  0  0  0  0
 23 17  1  0  0  0  0
 25 34  1  0  0  0  0
 26 23  2  0  0  0  0
 27 28  1  0  0  0  0
 28 24  1  0  0  0  0
 30 31  2  0  0  0  0
 32 22  1  0  0  0  0
M  END
> <ID>
SCHEMBL21150291

> <InChIKey>
ZDAXBRWNHNWKBO-QHCPKHFHSA-N

> <MW>
480.58

> <Series_Name>
Series_5

$$$$
SCHEMBL21150670
  Mrv1719007191900072D 0   0.00000     0.00000     0

 31 34  0  0  1  0              1 V2000 
    5.0972   -4.0534    0.0000 C   0  0  0  0  0  0  0  0  0  0  0  0
    5.8116   -4.4602    0.0000 C   0  0  0  0  0  0  0  0  0  0  0  0
    5.0972   -3.2168    0.0000 C   0  0  0  0  0  0  0  0  0  0  0  0
    5.8135   -2.8074    0.0000 C   0  0  0  0  0  0  0  0  0  0  0  0
    5.8182   -1.9810    0.0000 C   0  0  1  0  0  0  0  0  0  0  0  0
    5.0895   -1.5603    0.0000 N   0  0  0  0  0  0  0  0  0  0  0  0
    6.5260   -1.6034    0.0000 C   0  0  0  0  0  0  0  0  0  0  0  0
    7.2194   -1.9690    0.0000 S   0  0  0  0  0  0  0  0  0  0  0  0
    5.7953   -5.2752    0.0000 O   0  0  0  0  0  0  0  0  0  0  0  0
    6.5241   -3.2273    0.0000 C   0  0  0  0  0  0  0  0  0  0  0  0
    6.5244   -4.0405    0.0000 C   0  0  0  0  0  0  0  0  0  0  0  0
    0.4771   -3.2314    0.0000 C   0  0  0  0  0  0  0  0  0  0  0  0
    1.0647   -3.8310    0.0000 C   0  0  0  0  0  0  0  0  0  0  0  0
    0.6824   -2.4663    0.0000 C   0  0  0  0  0  0  0  0  0  0  0  0
    1.4828   -2.2414    0.0000 C   0  0  0  0  0  0  0  0  0  0  0  0
    2.0670   -2.8340    0.0000 C   0  0  0  0  0  0  0  0  0  0  0  0
    2.8658   -2.5993    0.0000 C   0  0  0  0  0  0  0  0  0  0  0  0
    2.9966   -1.7943    0.0000 C   0  0  0  0  0  0  0  0  0  0  0  0
    3.7570   -1.4988    0.0000 C   0  0  0  0  0  0  0  0  0  0  0  0
    3.9131   -0.7183    0.0000 N   0  0  0  0  0  0  0  0  0  0  0  0
    4.4015   -2.0244    0.0000 C   0  0  0  0  0  0  0  0  0  0  0  0
    3.5091   -3.1267    0.0000 C   0  0  0  0  0  0  0  0  0  0  0  0
    1.8576   -3.6205    0.0000 C   0  0  0  0  0  0  0  0  0  0  0  0
    2.4147   -4.1980    0.0000 F   0  0  0  0  0  0  0  0  0  0  0  0
    4.2642   -2.8276    0.0000 C   0  0  0  0  0  0  0  0  0  0  0  0
    7.2194   -2.7986    0.0000 O   0  0  0  0  0  0  0  0  0  0  0  0
    7.2194   -1.1517    0.0000 O   0  0  0  0  0  0  0  0  0  0  0  0
    4.8925   -0.8095    0.0000 C   0  0  0  0  0  0  0  0  0  0  0  0
    5.4487   -0.1734    0.0000 O   0  0  0  0  0  0  0  0  0  0  0  0
    6.5045   -5.6838    0.0000 C   0  0  0  0  0  0  0  0  0  0  0  0
    7.9355   -1.5789    0.0000 C   0  0  0  0  0  0  0  0  0  0  0  0
  1  2  1  0  0  0  0
  2 11  2  0  0  0  0
  3  1  2  0  0  0  0
  3  4  1  0  0  0  0
  4 10  2  0  0  0  0
  5  6  1  0  0  0  0
  5  7  1  1  0  0  0
  5  4  1  0  0  0  0
  6 28  1  0  0  0  0
  8  7  1  0  0  0  0
  8 26  2  0  0  0  0
  8 31  1  0  0  0  0
  9  2  1  0  0  0  0
  9 30  1  0  0  0  0
 11 10  1  0  0  0  0
 12 13  1  0  0  0  0
 12 14  2  0  0  0  0
 13 23  2  0  0  0  0
 14 15  1  0  0  0  0
 15 16  2  0  0  0  0
 16 17  1  0  0  0  0
 17 18  2  0  0  0  0
 17 22  1  0  0  0  0
 18 19  1  0  0  0  0
 19 21  2  0  0  0  0
 20 19  1  0  0  0  0
 20 28  1  0  0  0  0
 21  6  1  0  0  0  0
 22 25  2  0  0  0  0
 23 16  1  0  0  0  0
 23 24  1  0  0  0  0
 25 21  1  0  0  0  0
 27  8  2  0  0  0  0
 28 29  2  0  0  0  0
M  END
> <ID>
SCHEMBL21150670

> <InChIKey>
SQZGAKUIOZBNEL-QFIPXVFZSA-N

> <MW>
440.49

> <Series_Name>
Series_5

$$$$
SCHEMBL21150689
  Mrv1719007191900082D 0   0.00000     0.00000     0

 36 39  0  0  1  0              1 V2000 
    5.9207   -5.0022    0.0000 O   0  0  0  0  0  0  0  0  0  0  0  0
    5.3466   -5.5856    0.0000 C   0  0  0  0  0  0  0  0  0  0  0  0
    0.4970   -4.2300    0.0000 C   0  0  0  0  0  0  0  0  0  0  0  0
    0.7189   -5.0408    0.0000 C   0  0  0  0  0  0  0  0  0  0  0  0
    1.1024   -3.6588    0.0000 C   0  0  0  0  0  0  0  0  0  0  0  0
    0.8736   -2.8736    0.0000 C   0  0  0  0  0  0  0  0  0  0  0  0
    0.0766   -2.6494    0.0000 C   0  0  0  0  0  0  0  0  0  0  0  0
    1.4584   -2.2652    0.0000 C   0  0  0  0  0  0  0  0  0  0  0  0
    1.8853   -3.8679    0.0000 C   0  0  0  0  0  0  0  0  0  0  0  0
    2.4694   -3.2841    0.0000 C   0  0  0  0  0  0  0  0  0  0  0  0
    2.3541   -2.4489    0.0000 C   0  0  0  0  0  0  0  0  0  0  0  0
    2.9804   -1.9475    0.0000 C   0  0  0  0  0  0  0  0  0  0  0  0
    2.8797   -1.1047    0.0000 N   0  0  0  0  0  0  0  0  0  0  0  0
    4.2698   -1.5888    0.0000 N   0  0  0  0  0  0  0  0  0  0  0  0
    3.7570   -2.2440    0.0000 C   0  0  0  0  0  0  0  0  0  0  0  0
    3.8904   -3.0551    0.0000 C   0  0  0  0  0  0  0  0  0  0  0  0
    3.2374   -3.5848    0.0000 C   0  0  0  0  0  0  0  0  0  0  0  0
    2.1031   -4.6609    0.0000 C   0  0  0  0  0  0  0  0  0  0  0  0
    1.5055   -5.2623    0.0000 C   0  0  0  0  0  0  0  0  0  0  0  0
    7.3243   -4.6415    0.0000 C   0  0  0  0  0  0  0  0  0  0  0  0
    7.0875   -3.8354    0.0000 O   0  0  0  0  0  0  0  0  0  0  0  0
    8.1114   -4.8512    0.0000 C   0  0  0  0  0  0  0  0  0  0  0  0
    4.9226   -3.9942    0.0000 C   0  0  0  0  0  0  0  0  0  0  0  0
    5.7168   -4.2112    0.0000 C   0  0  0  0  0  0  0  0  0  0  0  0
    4.7043   -3.1932    0.0000 C   0  0  0  0  0  0  0  0  0  0  0  0
    5.2867   -2.6123    0.0000 C   0  0  0  0  0  0  0  0  0  0  0  0
    5.0788   -1.8262    0.0000 C   0  0  2  0  0  0  0  0  0  0  0  0
    5.6719   -1.2580    0.0000 C   0  0  0  0  0  0  0  0  0  0  0  0
    6.4420   -1.4274    0.0000 S   0  0  0  0  0  0  0  0  0  0  0  0
    6.3071   -3.6248    0.0000 C   0  0  0  0  0  0  0  0  0  0  0  0
    6.0876   -2.8363    0.0000 C   0  0  0  0  0  0  0  0  0  0  0  0
    7.2725   -1.6705    0.0000 C   0  0  0  0  0  0  0  0  0  0  0  0
    3.8499   -0.9299    0.0000 C   0  0  0  0  0  0  0  0  0  0  0  0
    4.2202   -0.1738    0.0000 O   0  0  0  0  0  0  0  0  0  0  0  0
    6.2310   -2.2342    0.0000 O   0  0  0  0  0  0  0  0  0  0  0  0
    6.6655   -0.6330    0.0000 O   0  0  0  0  0  0  0  0  0  0  0  0
  1  2  1  0  0  0  0
  3  4  2  0  0  0  0
  3  5  1  0  0  0  0
  4 19  1  0  0  0  0
  5  9  2  0  0  0  0
  6  5  1  0  0  0  0
  6  7  1  0  0  0  0
  6  8  1  0  0  0  0
  9 10  1  0  0  0  0
  9 18  1  0  0  0  0
 10 17  2  0  0  0  0
 11 12  2  0  0  0  0
 11 10  1  0  0  0  0
 12 13  1  0  0  0  0
 12 15  1  0  0  0  0
 13 33  1  0  0  0  0
 14 15  1  0  0  0  0
 14 33  1  0  0  0  0
 15 16  2  0  0  0  0
 17 16  1  0  0  0  0
 19 18  2  0  0  0  0
 20 21  1  0  0  0  0
 20 22  1  0  0  0  0
 23 24  2  0  0  0  0
 23 25  1  0  0  0  0
 24  1  1  0  0  0  0
 25 26  2  0  0  0  0
 27 26  1  0  0  0  0
 26 31  1  0  0  0  0
 27 14  1  0  0  0  0
 27 28  1  1  0  0  0
 28 29  1  0  0  0  0
 29 36  2  0  0  0  0
 30 21  1  0  0  0  0
 30 24  1  0  0  0  0
 31 30  2  0  0  0  0
 32 29  1  0  0  0  0
 33 34  2  0  0  0  0
 35 29  2  0  0  0  0
M  END
> <ID>
SCHEMBL21150689

> <InChIKey>
ZXJCCPOALNZPDZ-VWLOTQADSA-N

> <MW>
508.63

> <Series_Name>
Series_5

$$$$
SCHEMBL21150690
  Mrv1719007191900082D 0   0.00000     0.00000     0

 35 38  0  0  1  0              1 V2000 
    5.4948   -4.9862    0.0000 O   0  0  0  0  0  0  0  0  0  0  0  0
    4.9210   -5.5816    0.0000 C   0  0  0  0  0  0  0  0  0  0  0  0
    0.0868   -4.2254    0.0000 C   0  0  0  0  0  0  0  0  0  0  0  0
    0.2972   -5.0252    0.0000 C   0  0  0  0  0  0  0  0  0  0  0  0
    0.6641   -3.6434    0.0000 C   0  0  0  0  0  0  0  0  0  0  0  0
    0.4517   -2.8365    0.0000 C   0  0  0  0  0  0  0  0  0  0  0  0
    1.0357   -2.2512    0.0000 C   0  0  0  0  0  0  0  0  0  0  0  0
    1.4550   -3.8661    0.0000 C   0  0  0  0  0  0  0  0  0  0  0  0
    2.0555   -3.2744    0.0000 C   0  0  0  0  0  0  0  0  0  0  0  0
    1.9242   -2.4599    0.0000 C   0  0  0  0  0  0  0  0  0  0  0  0
    2.5691   -1.9417    0.0000 C   0  0  0  0  0  0  0  0  0  0  0  0
    2.4559   -1.1039    0.0000 N   0  0  0  0  0  0  0  0  0  0  0  0
    3.3314   -2.2217    0.0000 C   0  0  0  0  0  0  0  0  0  0  0  0
    3.8451   -1.5753    0.0000 N   0  0  0  0  0  0  0  0  0  0  0  0
    3.4651   -3.0460    0.0000 C   0  0  0  0  0  0  0  0  0  0  0  0
    1.0727   -5.2457    0.0000 C   0  0  0  0  0  0  0  0  0  0  0  0
    1.6770   -4.6451    0.0000 C   0  0  0  0  0  0  0  0  0  0  0  0
    2.8105   -3.5613    0.0000 C   0  0  0  0  0  0  0  0  0  0  0  0
    6.8932   -4.6245    0.0000 C   0  0  0  0  0  0  0  0  0  0  0  0
    6.6607   -3.8203    0.0000 O   0  0  0  0  0  0  0  0  0  0  0  0
    7.7249   -4.8522    0.0000 C   0  0  0  0  0  0  0  0  0  0  0  0
    4.5056   -3.9850    0.0000 C   0  0  0  0  0  0  0  0  0  0  0  0
    5.2936   -4.1971    0.0000 C   0  0  0  0  0  0  0  0  0  0  0  0
    4.2809   -3.1839    0.0000 C   0  0  0  0  0  0  0  0  0  0  0  0
    4.8752   -2.6001    0.0000 C   0  0  0  0  0  0  0  0  0  0  0  0
    4.6512   -1.8064    0.0000 C   0  0  2  0  0  0  0  0  0  0  0  0
    5.2530   -1.2490    0.0000 C   0  0  0  0  0  0  0  0  0  0  0  0
    6.0157   -1.4264    0.0000 S   0  0  0  0  0  0  0  0  0  0  0  0
    5.6652   -2.8292    0.0000 C   0  0  0  0  0  0  0  0  0  0  0  0
    5.8736   -3.6176    0.0000 C   0  0  0  0  0  0  0  0  0  0  0  0
    3.3525   -0.9093    0.0000 C   0  0  0  0  0  0  0  0  0  0  0  0
    3.8079   -0.1737    0.0000 O   0  0  0  0  0  0  0  0  0  0  0  0
    5.8049   -2.2202    0.0000 O   0  0  0  0  0  0  0  0  0  0  0  0
    6.8294   -1.6479    0.0000 C   0  0  0  0  0  0  0  0  0  0  0  0
    6.2390   -0.6202    0.0000 O   0  0  0  0  0  0  0  0  0  0  0  0
  1  2  1  0  0  0  0
  3  4  2  0  0  0  0
  3  5  1  0  0  0  0
  4 16  1  0  0  0  0
  5  8  2  0  0  0  0
  6  7  1  0  0  0  0
  6  5  1  0  0  0  0
  8  9  1  0  0  0  0
  8 17  1  0  0  0  0
  9 18  2  0  0  0  0
 10  9  1  0  0  0  0
 10 11  2  0  0  0  0
 11 12  1  0  0  0  0
 11 13  1  0  0  0  0
 12 31  1  0  0  0  0
 13 15  2  0  0  0  0
 14 13  1  0  0  0  0
 14 31  1  0  0  0  0
 16 17  2  0  0  0  0
 18 15  1  0  0  0  0
 19 20  1  0  0  0  0
 19 21  1  0  0  0  0
 22 23  2  0  0  0  0
 22 24  1  0  0  0  0
 23  1  1  0  0  0  0
 24 25  2  0  0  0  0
 26 25  1  0  0  0  0
 25 29  1  0  0  0  0
 26 14  1  0  0  0  0
 26 27  1  1  0  0  0
 27 28  1  0  0  0  0
 28 35  2  0  0  0  0
 29 30  2  0  0  0  0
 30 20  1  0  0  0  0
 30 23  1  0  0  0  0
 31 32  2  0  0  0  0
 33 28  2  0  0  0  0
 34 28  1  0  0  0  0
M  END
> <ID>
SCHEMBL21150690

> <InChIKey>
YBPLMNOSMFXKDG-DEOSSOPVSA-N

> <MW>
494.61

> <Series_Name>
Series_5

$$$$
SCHEMBL21150705
  Mrv1719007191900092D 0   0.00000     0.00000     0

 36 40  0  0  1  0              1 V2000 
    0.0767   -4.5740    0.0000 C   0  0  0  0  0  0  0  0  0  0  0  0
    0.2957   -5.3890    0.0000 C   0  0  0  0  0  0  0  0  0  0  0  0
    0.6702   -3.9958    0.0000 C   0  0  0  0  0  0  0  0  0  0  0  0
    0.4343   -3.1892    0.0000 F   0  0  0  0  0  0  0  0  0  0  0  0
    1.4598   -4.2185    0.0000 C   0  0  0  0  0  0  0  0  0  0  0  0
    2.0498   -3.6250    0.0000 C   0  0  0  0  0  0  0  0  0  0  0  0
    2.5616   -2.2987    0.0000 C   0  0  0  0  0  0  0  0  0  0  0  0
    1.9315   -2.7953    0.0000 C   0  0  0  0  0  0  0  0  0  0  0  0
    2.6060   -1.4519    0.0000 N   0  0  0  0  0  0  0  0  0  0  0  0
    3.3356   -2.5838    0.0000 C   0  0  0  0  0  0  0  0  0  0  0  0
    3.8469   -1.9359    0.0000 N   0  0  0  0  0  0  0  0  0  0  0  0
    3.4704   -3.3947    0.0000 C   0  0  0  0  0  0  0  0  0  0  0  0
    2.8149   -3.9293    0.0000 C   0  0  0  0  0  0  0  0  0  0  0  0
    1.0858   -5.6032    0.0000 C   0  0  0  0  0  0  0  0  0  0  0  0
    1.6792   -5.0072    0.0000 C   0  0  0  0  0  0  0  0  0  0  0  0
    6.8980   -4.9891    0.0000 C   0  0  0  0  0  0  0  0  0  0  0  0
    6.6639   -4.1696    0.0000 O   0  0  0  0  0  0  0  0  0  0  0  0
    7.6999   -5.1977    0.0000 C   0  0  0  0  0  0  0  0  0  0  0  0
    4.5025   -4.3436    0.0000 C   0  0  0  0  0  0  0  0  0  0  0  0
    5.2978   -4.5628    0.0000 C   0  0  0  0  0  0  0  0  0  0  0  0
    4.2817   -3.5341    0.0000 C   0  0  0  0  0  0  0  0  0  0  0  0
    4.8833   -2.9620    0.0000 C   0  0  0  0  0  0  0  0  0  0  0  0
    4.6577   -2.1376    0.0000 C   0  0  1  0  0  0  0  0  0  0  0  0
    5.6729   -3.1744    0.0000 C   0  0  0  0  0  0  0  0  0  0  0  0
    5.8908   -3.9699    0.0000 C   0  0  0  0  0  0  0  0  0  0  0  0
    5.4974   -5.3485    0.0000 O   0  0  0  0  0  0  0  0  0  0  0  0
    3.4364   -1.2904    0.0000 C   0  0  0  0  0  0  0  0  0  0  0  0
    3.5987   -0.4468    0.0000 O   0  0  0  0  0  0  0  0  0  0  0  0
    2.0111   -0.8560    0.0000 C   0  0  0  0  0  0  0  0  0  0  0  0
    1.2409   -0.6508    0.0000 C   0  0  0  0  0  0  0  0  0  0  0  0
    1.8051   -0.0944    0.0000 C   0  0  0  0  0  0  0  0  0  0  0  0
    6.3136   -5.5770    0.0000 C   0  0  0  0  0  0  0  0  0  0  0  0
    5.8076   -2.5812    0.0000 O   0  0  0  0  0  0  0  0  0  0  0  0
    6.0186   -1.7746    0.0000 S   0  0  0  0  0  0  0  0  0  0  0  0
    6.8642   -2.0181    0.0000 C   0  0  0  0  0  0  0  0  0  0  0  0
    5.2326   -1.5767    0.0000 C   0  0  0  0  0  0  0  0  0  0  0  0
  1  2  2  0  0  0  0
  1  3  1  0  0  0  0
  2 14  1  0  0  0  0
  3  5  2  0  0  0  0
  4  3  1  0  0  0  0
  6  5  1  0  0  0  0
  6 13  1  0  0  0  0
  7  8  1  0  0  0  0
  7 10  2  0  0  0  0
  8  6  2  0  0  0  0
  9  7  1  0  0  0  0
  9 27  1  0  0  0  0
  9 29  1  0  0  0  0
 10 11  1  0  0  0  0
 11 27  1  0  0  0  0
 12 10  1  0  0  0  0
 13 12  2  0  0  0  0
 14 15  2  0  0  0  0
 15  5  1  0  0  0  0
 16 17  1  0  0  0  0
 16 18  1  0  0  0  0
 19 20  1  0  0  0  0
 20 25  2  0  0  0  0
 21 19  2  0  0  0  0
 21 22  1  0  0  0  0
 22 24  2  0  0  0  0
 23 22  1  0  0  0  0
 23 36  1  6  0  0  0
 23 11  1  0  0  0  0
 25 17  1  0  0  0  0
 25 24  1  0  0  0  0
 26 20  1  0  0  0  0
 26 32  1  0  0  0  0
 27 28  2  0  0  0  0
 29 30  1  0  0  0  0
 29 31  1  0  0  0  0
 30 31  1  0  0  0  0
 33 34  2  0  0  0  0
 34 35  1  0  0  0  0
 34 36  1  0  0  0  0
M  END
> <ID>
SCHEMBL21150705

> <InChIKey>
DJRFRDXAPAPHAU-NNHKGWTCSA-N

> <MW>
508.61

> <Series_Name>
Series_5

$$$$
SCHEMBL21150711
  Mrv1719007191900102D 0   0.00000     0.00000     0

 36 40  0  0  1  0              1 V2000 
    6.0636   -5.0053    0.0000 O   0  0  0  0  0  0  0  0  0  0  0  0
    5.4877   -5.6029    0.0000 C   0  0  0  0  0  0  0  0  0  0  0  0
    1.2104   -3.6561    0.0000 C   0  0  0  0  0  0  0  0  0  0  0  0
    0.6255   -4.2442    0.0000 C   0  0  0  0  0  0  0  0  0  0  0  0
    0.9963   -2.8789    0.0000 C   0  0  0  0  0  0  0  0  0  0  0  0
    0.9889   -2.9324    0.0000 C   0  0  0  0  0  0  0  0  0  0  0  0
    2.4748   -2.4650    0.0000 C   0  0  0  0  0  0  0  0  0  0  0  0
    3.1126   -1.9483    0.0000 C   0  0  0  0  0  0  0  0  0  0  0  0
    3.0131   -1.1081    0.0000 N   0  0  0  0  0  0  0  0  0  0  0  0
    4.4076   -1.5813    0.0000 N   0  0  0  0  0  0  0  0  0  0  0  0
    3.8790   -2.2554    0.0000 C   0  0  0  0  0  0  0  0  0  0  0  0
    2.0163   -3.8803    0.0000 C   0  0  0  0  0  0  0  0  0  0  0  0
    2.6023   -3.2918    0.0000 C   0  0  0  0  0  0  0  0  0  0  0  0
    2.2300   -4.6708    0.0000 C   0  0  0  0  0  0  0  0  0  0  0  0
    1.6136   -5.2637    0.0000 C   0  0  0  0  0  0  0  0  0  0  0  0
    0.8435   -5.0495    0.0000 C   0  0  0  0  0  0  0  0  0  0  0  0
    4.0101   -3.0574    0.0000 C   0  0  0  0  0  0  0  0  0  0  0  0
    3.3689   -3.5849    0.0000 C   0  0  0  0  0  0  0  0  0  0  0  0
    7.2340   -3.8349    0.0000 O   0  0  0  0  0  0  0  0  0  0  0  0
    7.4697   -4.6509    0.0000 C   0  0  0  0  0  0  0  0  0  0  0  0
    8.2612   -4.8668    0.0000 C   0  0  0  0  0  0  0  0  0  0  0  0
    5.0654   -4.0072    0.0000 C   0  0  0  0  0  0  0  0  0  0  0  0
    5.8507   -4.2121    0.0000 C   0  0  0  0  0  0  0  0  0  0  0  0
    4.8526   -3.2123    0.0000 C   0  0  0  0  0  0  0  0  0  0  0  0
    5.4222   -2.6155    0.0000 C   0  0  0  0  0  0  0  0  0  0  0  0
    5.2145   -1.8083    0.0000 C   0  0  1  0  0  0  0  0  0  0  0  0
    6.4433   -3.6306    0.0000 C   0  0  0  0  0  0  0  0  0  0  0  0
    6.2258   -2.8435    0.0000 C   0  0  0  0  0  0  0  0  0  0  0  0
    0.1868   -2.6272    0.0000 N   0  0  0  0  0  0  0  0  0  0  0  0
    3.9133   -0.8800    0.0000 C   0  0  0  0  0  0  0  0  0  0  0  0
    4.3578   -0.1743    0.0000 O   0  0  0  0  0  0  0  0  0  0  0  0
    6.3749   -2.2287    0.0000 O   0  0  0  0  0  0  0  0  0  0  0  0
    6.5866   -1.4319    0.0000 S   0  0  0  0  0  0  0  0  0  0  0  0
    7.3983   -1.6678    0.0000 C   0  0  0  0  0  0  0  0  0  0  0  0
    5.7946   -1.2294    0.0000 C   0  0  0  0  0  0  0  0  0  0  0  0
    6.7982   -0.6350    0.0000 O   0  0  0  0  0  0  0  0  0  0  0  0
  1  2  1  0  0  0  0
  3  4  1  0  0  0  0
  3 12  2  0  0  0  0
  4 16  2  0  0  0  0
  5  6  1  0  0  0  0
  6 29  1  0  0  0  0
  6  3  1  0  0  0  0
  7  8  2  0  0  0  0
  7 13  1  0  0  0  0
  8  9  1  0  0  0  0
  8 11  1  0  0  0  0
  9 30  1  0  0  0  0
 10 11  1  0  0  0  0
 10 30  1  0  0  0  0
 11 17  2  0  0  0  0
 12 13  1  0  0  0  0
 12 14  1  0  0  0  0
 13 18  2  0  0  0  0
 15 14  2  0  0  0  0
 16 15  1  0  0  0  0
 18 17  1  0  0  0  0
 19 20  1  0  0  0  0
 20 21  1  0  0  0  0
 22 23  2  0  0  0  0
 22 24  1  0  0  0  0
 23  1  1  0  0  0  0
 24 25  2  0  0  0  0
 25 28  1  0  0  0  0
 26 25  1  0  0  0  0
 26 35  1  6  0  0  0
 26 10  1  0  0  0  0
 27 19  1  0  0  0  0
 27 23  1  0  0  0  0
 28 27  2  0  0  0  0
 29  5  2  0  0  0  0
 30 31  2  0  0  0  0
 32 33  2  0  0  0  0
 33 36  2  0  0  0  0
 34 33  1  0  0  0  0
 35 33  1  0  0  0  0
M  END
> <ID>
SCHEMBL21150711

> <InChIKey>
SHAMNGNMMJBKQS-SYIFMXBLSA-N

> <MW>
505.59

> <Series_Name>
Series_5

$$$$
SCHEMBL21150729
  Mrv1719007191900122D 0   0.00000     0.00000     0

 36 39  0  0  1  0              1 V2000 
    6.0547   -4.9979    0.0000 O   0  0  0  0  0  0  0  0  0  0  0  0
    5.4797   -5.5823    0.0000 C   0  0  0  0  0  0  0  0  0  0  0  0
    0.6207   -4.2376    0.0000 C   0  0  0  0  0  0  0  0  0  0  0  0
    0.8406   -5.0513    0.0000 C   0  0  0  0  0  0  0  0  0  0  0  0
    1.2132   -3.6562    0.0000 C   0  0  0  0  0  0  0  0  0  0  0  0
    0.9875   -2.8980    0.0000 C   0  0  0  0  0  0  0  0  0  0  0  0
    2.0063   -3.8701    0.0000 C   0  0  0  0  0  0  0  0  0  0  0  0
    2.6010   -3.2804    0.0000 C   0  0  0  0  0  0  0  0  0  0  0  0
    3.1037   -1.9460    0.0000 C   0  0  0  0  0  0  0  0  0  0  0  0
    3.0087   -1.1065    0.0000 N   0  0  0  0  0  0  0  0  0  0  0  0
    4.4012   -1.5790    0.0000 N   0  0  0  0  0  0  0  0  0  0  0  0
    3.8814   -2.2544    0.0000 C   0  0  0  0  0  0  0  0  0  0  0  0
    4.0097   -3.0543    0.0000 C   0  0  0  0  0  0  0  0  0  0  0  0
    3.3567   -3.5682    0.0000 C   0  0  0  0  0  0  0  0  0  0  0  0
    2.2259   -4.6639    0.0000 C   0  0  0  0  0  0  0  0  0  0  0  0
    1.6127   -5.2493    0.0000 C   0  0  0  0  0  0  0  0  0  0  0  0
    2.4747   -2.4562    0.0000 C   0  0  0  0  0  0  0  0  0  0  0  0
    7.2234   -3.8293    0.0000 O   0  0  0  0  0  0  0  0  0  0  0  0
    7.4642   -4.6367    0.0000 C   0  0  0  0  0  0  0  0  0  0  0  0
    8.2491   -4.8604    0.0000 C   0  0  0  0  0  0  0  0  0  0  0  0
    5.0458   -3.9831    0.0000 C   0  0  0  0  0  0  0  0  0  0  0  0
    5.8533   -4.2085    0.0000 C   0  0  0  0  0  0  0  0  0  0  0  0
    4.8363   -3.1870    0.0000 C   0  0  0  0  0  0  0  0  0  0  0  0
    5.4233   -2.6073    0.0000 C   0  0  0  0  0  0  0  0  0  0  0  0
    5.2057   -1.8090    0.0000 C   0  0  2  0  0  0  0  0  0  0  0  0
    5.8119   -1.2546    0.0000 C   0  0  0  0  0  0  0  0  0  0  0  0
    6.5769   -1.4298    0.0000 S   0  0  0  0  0  0  0  0  0  0  0  0
    6.2028   -2.8249    0.0000 C   0  0  0  0  0  0  0  0  0  0  0  0
    6.4386   -3.6256    0.0000 C   0  0  0  0  0  0  0  0  0  0  0  0
    0.1865   -2.6233    0.0000 N   0  0  0  0  0  0  0  0  0  0  0  0
    3.9978   -0.9088    0.0000 C   0  0  0  0  0  0  0  0  0  0  0  0
    4.3514   -0.1741    0.0000 O   0  0  0  0  0  0  0  0  0  0  0  0
    1.0206   -2.7582    0.0000 C   0  0  0  0  0  0  0  0  0  0  0  0
    6.3656   -2.2255    0.0000 O   0  0  0  0  0  0  0  0  0  0  0  0
    7.3912   -1.6516    0.0000 C   0  0  0  0  0  0  0  0  0  0  0  0
    6.7883   -0.6216    0.0000 O   0  0  0  0  0  0  0  0  0  0  0  0
  1  2  1  0  0  0  0
  3  4  2  0  0  0  0
  3  5  1  0  0  0  0
  4 16  1  0  0  0  0
  5  7  2  0  0  0  0
  6  5  1  0  0  0  0
  7  8  1  0  0  0  0
  7 15  1  0  0  0  0
  8 14  2  0  0  0  0
  9 10  1  0  0  0  0
  9 12  1  0  0  0  0
 10 31  1  0  0  0  0
 11 12  1  0  0  0  0
 11 31  1  0  0  0  0
 12 13  2  0  0  0  0
 14 13  1  0  0  0  0
 16 15  2  0  0  0  0
 17  9  2  0  0  0  0
 17  8  1  0  0  0  0
 18 19  1  0  0  0  0
 19 20  1  0  0  0  0
 21 22  2  0  0  0  0
 21 23  1  0  0  0  0
 22  1  1  0  0  0  0
 23 24  2  0  0  0  0
 25 24  1  0  0  0  0
 24 28  1  0  0  0  0
 25 11  1  0  0  0  0
 25 26  1  1  0  0  0
 26 27  1  0  0  0  0
 27 36  2  0  0  0  0
 28 29  2  0  0  0  0
 29 18  1  0  0  0  0
 29 22  1  0  0  0  0
 30  6  2  0  0  0  0
 31 32  2  0  0  0  0
 33 30  1  0  0  0  0
 34 27  2  0  0  0  0
 35 27  1  0  0  0  0
M  END
> <ID>
SCHEMBL21150729

> <InChIKey>
VZLFZOYRHBTRLK-BATDETSNSA-N

> <MW>
507.61

> <Series_Name>
Series_5

$$$$
SCHEMBL21150732
  Mrv1719007191900122D 0   0.00000     0.00000     0

 34 37  0  0  1  0              1 V2000 
    4.6150  -11.3885    0.0000 O   0  0  0  0  0  0  0  0  0  0  0  0
    5.2104  -11.9771    0.0000 C   0  0  0  0  0  0  0  0  0  0  0  0
    6.2152  -10.9543    0.0000 O   0  0  0  0  0  0  0  0  0  0  0  0
    7.0390  -10.7566    0.0000 C   0  0  0  0  0  0  0  0  0  0  0  0
    7.6063  -11.3264    0.0000 C   0  0  0  0  0  0  0  0  0  0  0  0
    4.2739  -10.0098    0.0000 C   0  0  0  0  0  0  0  0  0  0  0  0
    4.8538  -10.6028    0.0000 C   0  0  0  0  0  0  0  0  0  0  0  0
    5.4894   -8.2046    0.0000 C   0  0  1  0  0  0  0  0  0  0  0  0
    5.2749   -9.0039    0.0000 C   0  0  0  0  0  0  0  0  0  0  0  0
    4.9003   -7.6047    0.0000 N   0  0  0  0  0  0  0  0  0  0  0  0
    6.2797   -8.0239    0.0000 C   0  0  0  0  0  0  0  0  0  0  0  0
    6.8480   -8.5600    0.0000 S   0  0  0  0  0  0  0  0  0  0  0  0
    5.8611   -9.5844    0.0000 C   0  0  0  0  0  0  0  0  0  0  0  0
    5.6239  -10.3874    0.0000 C   0  0  0  0  0  0  0  0  0  0  0  0
    4.4791   -9.2188    0.0000 C   0  0  0  0  0  0  0  0  0  0  0  0
    0.0770   -8.6876    0.0000 C   0  0  0  0  0  0  0  0  0  0  0  0
    0.6643   -9.2729    0.0000 C   0  0  0  0  0  0  0  0  0  0  0  0
    0.2945   -7.8969    0.0000 C   0  0  0  0  0  0  0  0  0  0  0  0
    1.0899   -7.6740    0.0000 C   0  0  0  0  0  0  0  0  0  0  0  0
    1.6780   -8.2587    0.0000 C   0  0  0  0  0  0  0  0  0  0  0  0
    4.1001   -6.3828    0.0000 N   0  0  0  0  0  0  0  0  0  0  0  0
    3.6331   -7.2059    0.0000 C   0  0  0  0  0  0  0  0  0  0  0  0
    4.1195   -7.8696    0.0000 C   0  0  0  0  0  0  0  0  0  0  0  0
    2.9633   -8.7207    0.0000 C   0  0  0  0  0  0  0  0  0  0  0  0
    3.7908   -8.6006    0.0000 C   0  0  0  0  0  0  0  0  0  0  0  0
    2.4841   -8.0296    0.0000 C   0  0  0  0  0  0  0  0  0  0  0  0
    1.4431   -9.0641    0.0000 C   0  0  0  0  0  0  0  0  0  0  0  0
    2.0345   -9.6268    0.0000 F   0  0  0  0  0  0  0  0  0  0  0  0
    2.8153   -7.2995    0.0000 C   0  0  0  0  0  0  0  0  0  0  0  0
    7.4558   -9.1611    0.0000 C   0  0  0  0  0  0  0  0  0  0  0  0
    6.2773   -9.1430    0.0000 O   0  0  0  0  0  0  0  0  0  0  0  0
    7.4435   -7.9769    0.0000 O   0  0  0  0  0  0  0  0  0  0  0  0
    4.8474   -6.7650    0.0000 C   0  0  0  0  0  0  0  0  0  0  0  0
    5.6074   -6.3642    0.0000 O   0  0  0  0  0  0  0  0  0  0  0  0
  1  2  1  0  0  0  0
  1  7  1  0  0  0  0
  3  4  1  0  0  0  0
  4  5  1  0  0  0  0
  6  7  1  0  0  0  0
  6 15  2  0  0  0  0
  7 14  2  0  0  0  0
  8  9  1  0  0  0  0
  8 11  1  1  0  0  0
  9 13  2  0  0  0  0
  8 10  1  0  0  0  0
 10 33  1  0  0  0  0
 11 12  1  0  0  0  0
 12 32  2  0  0  0  0
 14  3  1  0  0  0  0
 14 13  1  0  0  0  0
 15  9  1  0  0  0  0
 16 17  1  0  0  0  0
 16 18  2  0  0  0  0
 17 27  2  0  0  0  0
 18 19  1  0  0  0  0
 19 20  2  0  0  0  0
 20 26  1  0  0  0  0
 21 22  1  0  0  0  0
 21 33  1  0  0  0  0
 22 23  2  0  0  0  0
 23 10  1  0  0  0  0
 24 25  2  0  0  0  0
 24 26  1  0  0  0  0
 25 23  1  0  0  0  0
 26 29  2  0  0  0  0
 27 20  1  0  0  0  0
 27 28  1  0  0  0  0
 29 22  1  0  0  0  0
 30 12  1  0  0  0  0
 31 12  2  0  0  0  0
 33 34  2  0  0  0  0
M  END
> <ID>
SCHEMBL21150732

> <InChIKey>
YXHQYOHNDBLSSJ-QFIPXVFZSA-N

> <MW>
484.54

> <Series_Name>
Series_5

$$$$
SCHEMBL21150736
  Mrv1719007191900122D 0   0.00000     0.00000     0

 36 40  0  0  1  0              1 V2000 
    5.5050   -5.3559    0.0000 O   0  0  0  0  0  0  0  0  0  0  0  0
    4.9302   -5.9524    0.0000 C   0  0  0  0  0  0  0  0  0  0  0  0
    0.0963   -4.5972    0.0000 C   0  0  0  0  0  0  0  0  0  0  0  0
    0.2946   -5.3912    0.0000 C   0  0  0  0  0  0  0  0  0  0  0  0
    0.6663   -4.0100    0.0000 C   0  0  0  0  0  0  0  0  0  0  0  0
    0.4349   -3.1936    0.0000 F   0  0  0  0  0  0  0  0  0  0  0  0
    1.4606   -4.2349    0.0000 C   0  0  0  0  0  0  0  0  0  0  0  0
    2.0529   -3.6373    0.0000 C   0  0  0  0  0  0  0  0  0  0  0  0
    1.9262   -2.8229    0.0000 C   0  0  0  0  0  0  0  0  0  0  0  0
    2.5632   -2.2987    0.0000 C   0  0  0  0  0  0  0  0  0  0  0  0
    2.6096   -1.4539    0.0000 N   0  0  0  0  0  0  0  0  0  0  0  0
    3.3390   -2.5942    0.0000 C   0  0  0  0  0  0  0  0  0  0  0  0
    3.8523   -1.9385    0.0000 N   0  0  0  0  0  0  0  0  0  0  0  0
    3.4707   -3.4029    0.0000 C   0  0  0  0  0  0  0  0  0  0  0  0
    2.8214   -3.9343    0.0000 C   0  0  0  0  0  0  0  0  0  0  0  0
    1.0803   -5.6159    0.0000 C   0  0  0  0  0  0  0  0  0  0  0  0
    1.6805   -5.0142    0.0000 C   0  0  0  0  0  0  0  0  0  0  0  0
    6.9117   -4.9960    0.0000 C   0  0  0  0  0  0  0  0  0  0  0  0
    6.6731   -4.1878    0.0000 O   0  0  0  0  0  0  0  0  0  0  0  0
    7.7365   -5.2182    0.0000 C   0  0  0  0  0  0  0  0  0  0  0  0
    4.5131   -4.3484    0.0000 C   0  0  0  0  0  0  0  0  0  0  0  0
    5.3022   -4.5693    0.0000 C   0  0  0  0  0  0  0  0  0  0  0  0
    4.2889   -3.5501    0.0000 C   0  0  0  0  0  0  0  0  0  0  0  0
    4.8736   -2.9670    0.0000 C   0  0  0  0  0  0  0  0  0  0  0  0
    4.6549   -2.1733    0.0000 C   0  0  2  0  0  0  0  0  0  0  0  0
    5.2670   -1.6137    0.0000 C   0  0  0  0  0  0  0  0  0  0  0  0
    6.0269   -1.7894    0.0000 S   0  0  0  0  0  0  0  0  0  0  0  0
    5.8888   -3.9804    0.0000 C   0  0  0  0  0  0  0  0  0  0  0  0
    5.6727   -3.1890    0.0000 C   0  0  0  0  0  0  0  0  0  0  0  0
    6.8596   -2.0210    0.0000 C   0  0  0  0  0  0  0  0  0  0  0  0
    3.4180   -1.2795    0.0000 C   0  0  0  0  0  0  0  0  0  0  0  0
    2.0123   -0.8743    0.0000 C   0  0  0  0  0  0  0  0  0  0  0  0
    1.2452   -0.6734    0.0000 C   0  0  0  0  0  0  0  0  0  0  0  0
    1.8062   -0.0911    0.0000 C   0  0  0  0  0  0  0  0  0  0  0  0
    5.8156   -2.5847    0.0000 O   0  0  0  0  0  0  0  0  0  0  0  0
    3.8150   -0.5343    0.0000 O   0  0  0  0  0  0  0  0  0  0  0  0
  1  2  1  0  0  0  0
  1 22  1  0  0  0  0
  3  4  2  0  0  0  0
  3  5  1  0  0  0  0
  4 16  1  0  0  0  0
  5  7  2  0  0  0  0
  6  5  1  0  0  0  0
  7  8  1  0  0  0  0
  7 17  1  0  0  0  0
  8 15  1  0  0  0  0
  9  8  2  0  0  0  0
  9 10  1  0  0  0  0
 10 12  2  0  0  0  0
 11 10  1  0  0  0  0
 11 31  1  0  0  0  0
 12 13  1  0  0  0  0
 13 31  1  0  0  0  0
 14 12  1  0  0  0  0
 15 14  2  0  0  0  0
 16 17  2  0  0  0  0
 18 19  1  0  0  0  0
 18 20  1  0  0  0  0
 21 22  1  0  0  0  0
 22 28  2  0  0  0  0
 23 21  2  0  0  0  0
 23 24  1  0  0  0  0
 24 29  2  0  0  0  0
 25 24  1  0  0  0  0
 25 13  1  0  0  0  0
 25 26  1  1  0  0  0
 27 26  1  0  0  0  0
 27 30  1  0  0  0  0
 28 19  1  0  0  0  0
 28 29  1  0  0  0  0
 31 36  2  0  0  0  0
 32 33  1  0  0  0  0
 32 11  1  0  0  0  0
 32 34  1  0  0  0  0
 33 34  1  0  0  0  0
 35 27  2  0  0  0  0
M  END
> <ID>
SCHEMBL21150736

> <InChIKey>
DJRFRDXAPAPHAU-XFCCSEHESA-N

> <MW>
508.61

> <Series_Name>
Series_5

$$$$
SCHEMBL21150776
  Mrv1719007191900172D 0   0.00000     0.00000     0

 37 41  0  0  1  0              1 V2000 
    0.6696   -3.9608    0.0000 C   0  0  0  0  0  0  0  0  0  0  0  0
    0.0774   -4.5376    0.0000 C   0  0  0  0  0  0  0  0  0  0  0  0
    0.4341   -3.1502    0.0000 F   0  0  0  0  0  0  0  0  0  0  0  0
    1.4600   -4.1726    0.0000 C   0  0  0  0  0  0  0  0  0  0  0  0
    2.0409   -3.5898    0.0000 C   0  0  0  0  0  0  0  0  0  0  0  0
    1.8439   -2.7907    0.0000 C   0  0  0  0  0  0  0  0  0  0  0  0
    2.4126   -2.2068    0.0000 C   0  0  0  0  0  0  0  0  0  0  0  0
    2.3688   -1.3642    0.0000 N   0  0  0  0  0  0  0  0  0  0  0  0
    3.1949   -2.4118    0.0000 C   0  0  0  0  0  0  0  0  0  0  0  0
    3.6587   -1.7115    0.0000 N   0  0  0  0  0  0  0  0  0  0  0  0
    3.4293   -3.2059    0.0000 C   0  0  0  0  0  0  0  0  0  0  0  0
    2.8323   -3.8090    0.0000 C   0  0  0  0  0  0  0  0  0  0  0  0
    1.6751   -4.9622    0.0000 C   0  0  0  0  0  0  0  0  0  0  0  0
    1.0616   -5.5536    0.0000 C   0  0  0  0  0  0  0  0  0  0  0  0
    0.2944   -5.3398    0.0000 C   0  0  0  0  0  0  0  0  0  0  0  0
    6.9762   -4.5958    0.0000 C   0  0  0  0  0  0  0  0  0  0  0  0
    6.1267   -4.5764    0.0000 O   0  0  0  0  0  0  0  0  0  0  0  0
    4.9030   -3.8783    0.0000 C   0  0  0  0  0  0  0  0  0  0  0  0
    5.7317   -3.8795    0.0000 C   0  0  0  0  0  0  0  0  0  0  0  0
    4.4898   -3.1609    0.0000 C   0  0  0  0  0  0  0  0  0  0  0  0
    4.8959   -2.4469    0.0000 C   0  0  0  0  0  0  0  0  0  0  0  0
    4.4948   -1.7131    0.0000 C   0  0  2  0  0  0  0  0  0  0  0  0
    4.8771   -1.0470    0.0000 C   0  0  0  0  0  0  0  0  0  0  0  0
    5.7050   -1.0046    0.0000 S   0  0  0  0  0  0  0  0  0  0  0  0
    5.7369   -2.4521    0.0000 C   0  0  0  0  0  0  0  0  0  0  0  0
    6.1414   -3.1543    0.0000 C   0  0  0  0  0  0  0  0  0  0  0  0
    6.9576   -3.1502    0.0000 O   0  0  0  0  0  0  0  0  0  0  0  0
    8.2164   -3.8761    0.0000 C   0  0  0  0  0  0  0  0  0  0  0  0
    7.3837   -3.8785    0.0000 C   0  0  0  0  0  0  0  0  0  0  0  0
    5.7174   -1.8231    0.0000 O   0  0  0  0  0  0  0  0  0  0  0  0
    3.1738   -1.1152    0.0000 C   0  0  0  0  0  0  0  0  0  0  0  0
    3.3362   -0.2728    0.0000 O   0  0  0  0  0  0  0  0  0  0  0  0
    1.6614   -0.9640    0.0000 C   0  0  0  0  0  0  0  0  0  0  0  0
    0.8682   -0.7372    0.0000 C   0  0  0  0  0  0  0  0  0  0  0  0
    1.4394   -0.1706    0.0000 C   0  0  0  0  0  0  0  0  0  0  0  0
    6.5546   -1.0115    0.0000 C   0  0  0  0  0  0  0  0  0  0  0  0
    5.7174   -0.1736    0.0000 O   0  0  0  0  0  0  0  0  0  0  0  0
  1  2  1  0  0  0  0
  1  4  2  0  0  0  0
  2 15  2  0  0  0  0
  3  1  1  0  0  0  0
  5  4  1  0  0  0  0
  5 12  1  0  0  0  0
  6  5  2  0  0  0  0
  6  7  1  0  0  0  0
  7  9  2  0  0  0  0
  8  7  1  0  0  0  0
  8 31  1  0  0  0  0
  9 10  1  0  0  0  0
  9 11  1  0  0  0  0
 10 31  1  0  0  0  0
 12 11  2  0  0  0  0
 13  4  1  0  0  0  0
 14 13  2  0  0  0  0
 15 14  1  0  0  0  0
 16 17  1  0  0  0  0
 17 19  1  0  0  0  0
 18 19  1  0  0  0  0
 19 26  2  0  0  0  0
 20 18  2  0  0  0  0
 20 21  1  0  0  0  0
 21 25  2  0  0  0  0
 22 10  1  0  0  0  0
 22 23  1  1  0  0  0
 22 21  1  0  0  0  0
 23 24  1  0  0  0  0
 24 30  2  0  0  0  0
 24 37  2  0  0  0  0
 25 26  1  0  0  0  0
 26 27  1  0  0  0  0
 28 29  1  0  0  0  0
 29 27  1  0  0  0  0
 31 32  2  0  0  0  0
 33 34  1  0  0  0  0
 33  8  1  0  0  0  0
 33 35  1  0  0  0  0
 34 35  1  0  0  0  0
 36 24  1  0  0  0  0
M  END
> <ID>
SCHEMBL21150776

> <InChIKey>
AVRAATHDCVEVOB-VWLOTQADSA-N

> <MW>
524.61

> <Series_Name>
Series_5

$$$$
SCHEMBL21150783
  Mrv1719007191900172D 0   0.00000     0.00000     0

 36 39  0  0  1  0              1 V2000 
    0.6675   -4.0225    0.0000 C   0  0  0  0  0  0  0  0  0  0  0  0
    0.0776   -4.5970    0.0000 C   0  0  0  0  0  0  0  0  0  0  0  0
    0.4327   -3.2144    0.0000 F   0  0  0  0  0  0  0  0  0  0  0  0
    1.4553   -4.2335    0.0000 C   0  0  0  0  0  0  0  0  0  0  0  0
    2.0333   -3.6522    0.0000 C   0  0  0  0  0  0  0  0  0  0  0  0
    1.8379   -2.8540    0.0000 C   0  0  0  0  0  0  0  0  0  0  0  0
    2.4051   -2.2737    0.0000 C   0  0  0  0  0  0  0  0  0  0  0  0
    2.3613   -1.4341    0.0000 N   0  0  0  0  0  0  0  0  0  0  0  0
    3.6470   -1.7803    0.0000 N   0  0  0  0  0  0  0  0  0  0  0  0
    3.1877   -2.4775    0.0000 C   0  0  0  0  0  0  0  0  0  0  0  0
    3.4178   -3.2732    0.0000 C   0  0  0  0  0  0  0  0  0  0  0  0
    2.8230   -3.8714    0.0000 C   0  0  0  0  0  0  0  0  0  0  0  0
    1.6698   -5.0207    0.0000 C   0  0  0  0  0  0  0  0  0  0  0  0
    1.0568   -5.6052    0.0000 C   0  0  0  0  0  0  0  0  0  0  0  0
    0.2999   -5.4003    0.0000 C   0  0  0  0  0  0  0  0  0  0  0  0
    6.9542   -4.6555    0.0000 C   0  0  0  0  0  0  0  0  0  0  0  0
    6.1074   -4.6362    0.0000 O   0  0  0  0  0  0  0  0  0  0  0  0
    4.8872   -3.9403    0.0000 C   0  0  0  0  0  0  0  0  0  0  0  0
    5.7134   -3.9411    0.0000 C   0  0  0  0  0  0  0  0  0  0  0  0
    4.4755   -3.2254    0.0000 C   0  0  0  0  0  0  0  0  0  0  0  0
    4.8807   -2.5126    0.0000 C   0  0  0  0  0  0  0  0  0  0  0  0
    4.4766   -1.7917    0.0000 C   0  0  2  0  0  0  0  0  0  0  0  0
    4.8616   -1.1220    0.0000 C   0  0  0  0  0  0  0  0  0  0  0  0
    5.6870   -1.0756    0.0000 S   0  0  0  0  0  0  0  0  0  0  0  0
    5.7189   -2.5184    0.0000 C   0  0  0  0  0  0  0  0  0  0  0  0
    6.1232   -3.2190    0.0000 C   0  0  0  0  0  0  0  0  0  0  0  0
    6.9356   -3.2144    0.0000 O   0  0  0  0  0  0  0  0  0  0  0  0
    8.1904   -3.9379    0.0000 C   0  0  0  0  0  0  0  0  0  0  0  0
    7.3601   -3.9404    0.0000 C   0  0  0  0  0  0  0  0  0  0  0  0
    5.6993   -1.8916    0.0000 O   0  0  0  0  0  0  0  0  0  0  0  0
    3.1639   -1.1859    0.0000 C   0  0  0  0  0  0  0  0  0  0  0  0
    3.3257   -0.3462    0.0000 O   0  0  0  0  0  0  0  0  0  0  0  0
    1.7806   -0.8665    0.0000 C   0  0  0  0  0  0  0  0  0  0  0  0
    1.9890   -0.0668    0.0000 C   0  0  0  0  0  0  0  0  0  0  0  0
    6.5338   -1.0825    0.0000 C   0  0  0  0  0  0  0  0  0  0  0  0
    5.6993   -0.2473    0.0000 O   0  0  0  0  0  0  0  0  0  0  0  0
  1  2  1  0  0  0  0
  1  4  2  0  0  0  0
  2 15  2  0  0  0  0
  3  1  1  0  0  0  0
  4  5  1  0  0  0  0
  5 12  2  0  0  0  0
  6  5  1  0  0  0  0
  6  7  2  0  0  0  0
  7  8  1  0  0  0  0
  7 10  1  0  0  0  0
  8 31  1  0  0  0  0
  9 10  1  0  0  0  0
  9 31  1  0  0  0  0
 10 11  2  0  0  0  0
 12 11  1  0  0  0  0
 13  4  1  0  0  0  0
 14 13  2  0  0  0  0
 15 14  1  0  0  0  0
 16 17  1  0  0  0  0
 18 19  2  0  0  0  0
 18 20  1  0  0  0  0
 19 17  1  0  0  0  0
 20 21  2  0  0  0  0
 22 21  1  0  0  0  0
 21 25  1  0  0  0  0
 22  9  1  0  0  0  0
 22 23  1  1  0  0  0
 23 24  1  0  0  0  0
 24 30  2  0  0  0  0
 24 36  2  0  0  0  0
 25 26  2  0  0  0  0
 26 27  1  0  0  0  0
 26 19  1  0  0  0  0
 28 29  1  0  0  0  0
 29 27  1  0  0  0  0
 31 32  2  0  0  0  0
 33 34  1  0  0  0  0
 33  8  1  0  0  0  0
 35 24  1  0  0  0  0
M  END
> <ID>
SCHEMBL21150783

> <InChIKey>
DMTHBBBHXXGHLH-DEOSSOPVSA-N

> <MW>
512.6

> <Series_Name>
Series_5

$$$$
SCHEMBL21150788
  Mrv1719007191900172D 0   0.00000     0.00000     0

 36 39  0  0  1  0              1 V2000 
    0.6682   -3.9530    0.0000 C   0  0  0  0  0  0  0  0  0  0  0  0
    0.0772   -4.5286    0.0000 C   0  0  0  0  0  0  0  0  0  0  0  0
    0.4332   -3.1439    0.0000 F   0  0  0  0  0  0  0  0  0  0  0  0
    1.4570   -4.1643    0.0000 C   0  0  0  0  0  0  0  0  0  0  0  0
    2.0367   -3.5828    0.0000 C   0  0  0  0  0  0  0  0  0  0  0  0
    1.8403   -2.7851    0.0000 C   0  0  0  0  0  0  0  0  0  0  0  0
    2.4078   -2.2025    0.0000 C   0  0  0  0  0  0  0  0  0  0  0  0
    2.2280   -1.3615    0.0000 N   0  0  0  0  0  0  0  0  0  0  0  0
    3.1886   -2.4071    0.0000 C   0  0  0  0  0  0  0  0  0  0  0  0
    3.6514   -1.7081    0.0000 N   0  0  0  0  0  0  0  0  0  0  0  0
    3.4221   -3.1996    0.0000 C   0  0  0  0  0  0  0  0  0  0  0  0
    2.8266   -3.8016    0.0000 C   0  0  0  0  0  0  0  0  0  0  0  0
    1.6715   -4.9526    0.0000 C   0  0  0  0  0  0  0  0  0  0  0  0
    1.0595   -5.5426    0.0000 C   0  0  0  0  0  0  0  0  0  0  0  0
    0.2938   -5.3292    0.0000 C   0  0  0  0  0  0  0  0  0  0  0  0
    6.9539   -4.5785    0.0000 C   0  0  0  0  0  0  0  0  0  0  0  0
    6.1146   -4.5674    0.0000 O   0  0  0  0  0  0  0  0  0  0  0  0
    7.3523   -3.8495    0.0000 F   0  0  0  0  0  0  0  0  0  0  0  0
    7.3523   -5.2852    0.0000 F   0  0  0  0  0  0  0  0  0  0  0  0
    4.8929   -3.8707    0.0000 C   0  0  0  0  0  0  0  0  0  0  0  0
    5.7200   -3.8719    0.0000 C   0  0  0  0  0  0  0  0  0  0  0  0
    4.4808   -3.1549    0.0000 C   0  0  0  0  0  0  0  0  0  0  0  0
    4.8862   -2.4421    0.0000 C   0  0  0  0  0  0  0  0  0  0  0  0
    4.4859   -1.7097    0.0000 C   0  0  2  0  0  0  0  0  0  0  0  0
    4.8675   -1.0449    0.0000 C   0  0  0  0  0  0  0  0  0  0  0  0
    5.6937   -1.0026    0.0000 S   0  0  0  0  0  0  0  0  0  0  0  0
    5.7256   -2.4472    0.0000 C   0  0  0  0  0  0  0  0  0  0  0  0
    6.1302   -3.1483    0.0000 C   0  0  0  0  0  0  0  0  0  0  0  0
    6.9439   -3.1439    0.0000 O   0  0  0  0  0  0  0  0  0  0  0  0
    7.3635   -2.4500    0.0000 C   0  0  0  0  0  0  0  0  0  0  0  0
    8.2002   -2.4441    0.0000 C   0  0  0  0  0  0  0  0  0  0  0  0
    5.7061   -1.8195    0.0000 O   0  0  0  0  0  0  0  0  0  0  0  0
    3.1676   -1.1131    0.0000 C   0  0  0  0  0  0  0  0  0  0  0  0
    3.3296   -0.2723    0.0000 O   0  0  0  0  0  0  0  0  0  0  0  0
    6.5416   -1.0095    0.0000 C   0  0  0  0  0  0  0  0  0  0  0  0
    5.7061   -0.1733    0.0000 O   0  0  0  0  0  0  0  0  0  0  0  0
  1  2  1  0  0  0  0
  1  4  2  0  0  0  0
  2 15  2  0  0  0  0
  3  1  1  0  0  0  0
  5  4  1  0  0  0  0
  5 12  1  0  0  0  0
  6  5  2  0  0  0  0
  6  7  1  0  0  0  0
  7  9  2  0  0  0  0
  8  7  1  0  0  0  0
  8 33  1  0  0  0  0
  9 10  1  0  0  0  0
  9 11  1  0  0  0  0
 10 33  1  0  0  0  0
 12 11  2  0  0  0  0
 13  4  1  0  0  0  0
 14 13  2  0  0  0  0
 15 14  1  0  0  0  0
 16 17  1  0  0  0  0
 16 18  1  0  0  0  0
 16 19  1  0  0  0  0
 17 21  1  0  0  0  0
 20 21  1  0  0  0  0
 21 28  2  0  0  0  0
 22 20  2  0  0  0  0
 22 23  1  0  0  0  0
 23 27  2  0  0  0  0
 24 10  1  0  0  0  0
 24 25  1  1  0  0  0
 24 23  1  0  0  0  0
 25 26  1  0  0  0  0
 26 32  2  0  0  0  0
 26 36  2  0  0  0  0
 27 28  1  0  0  0  0
 28 29  1  0  0  0  0
 29 30  1  0  0  0  0
 31 30  1  0  0  0  0
 33 34  2  0  0  0  0
 35 26  1  0  0  0  0
M  END
> <ID>
SCHEMBL21150788

> <InChIKey>
VQYPGOKNAIUPNL-NRFANRHFSA-N

> <MW>
520.52

> <Series_Name>
Series_5

$$$$
SCHEMBL21150797
  Mrv1719007191900192D 0   0.00000     0.00000     0

 36 39  0  0  1  0              1 V2000 
    0.0742   -4.4444    0.0000 C   0  0  0  0  0  0  0  0  0  0  0  0
    0.2954   -5.2520    0.0000 C   0  0  0  0  0  0  0  0  0  0  0  0
    0.6654   -3.8670    0.0000 C   0  0  0  0  0  0  0  0  0  0  0  0
    0.4335   -3.0592    0.0000 F   0  0  0  0  0  0  0  0  0  0  0  0
    2.0423   -3.5000    0.0000 C   0  0  0  0  0  0  0  0  0  0  0  0
    1.4595   -4.0839    0.0000 C   0  0  0  0  0  0  0  0  0  0  0  0
    2.4768   -2.1423    0.0000 C   0  0  0  0  0  0  0  0  0  0  0  0
    1.8785   -2.6927    0.0000 C   0  0  0  0  0  0  0  0  0  0  0  0
    2.3409   -1.3005    0.0000 N   0  0  0  0  0  0  0  0  0  0  0  0
    3.2693   -2.4047    0.0000 C   0  0  0  0  0  0  0  0  0  0  0  0
    3.7528   -1.7092    0.0000 N   0  0  0  0  0  0  0  0  0  0  0  0
    3.4416   -3.1950    0.0000 C   0  0  0  0  0  0  0  0  0  0  0  0
    2.8222   -3.7564    0.0000 C   0  0  0  0  0  0  0  0  0  0  0  0
    1.6771   -4.8781    0.0000 C   0  0  0  0  0  0  0  0  0  0  0  0
    1.0807   -5.4708    0.0000 C   0  0  0  0  0  0  0  0  0  0  0  0
    7.0594   -4.5876    0.0000 C   0  0  0  0  0  0  0  0  0  0  0  0
    6.2175   -4.5702    0.0000 O   0  0  0  0  0  0  0  0  0  0  0  0
    7.4559   -3.8643    0.0000 F   0  0  0  0  0  0  0  0  0  0  0  0
    7.4559   -5.2886    0.0000 F   0  0  0  0  0  0  0  0  0  0  0  0
    4.9902   -3.8689    0.0000 C   0  0  0  0  0  0  0  0  0  0  0  0
    5.8193   -3.8707    0.0000 C   0  0  0  0  0  0  0  0  0  0  0  0
    4.5920   -3.1526    0.0000 C   0  0  0  0  0  0  0  0  0  0  0  0
    4.9862   -2.4537    0.0000 C   0  0  0  0  0  0  0  0  0  0  0  0
    4.5820   -1.7193    0.0000 C   0  0  1  0  0  0  0  0  0  0  0  0
    6.2319   -3.1560    0.0000 C   0  0  0  0  0  0  0  0  0  0  0  0
    5.8226   -2.4515    0.0000 C   0  0  0  0  0  0  0  0  0  0  0  0
    7.0473   -3.1459    0.0000 O   0  0  0  0  0  0  0  0  0  0  0  0
    7.4671   -2.4515    0.0000 C   0  0  0  0  0  0  0  0  0  0  0  0
    8.3044   -2.4455    0.0000 C   0  0  0  0  0  0  0  0  0  0  0  0
    5.7963   -1.0032    0.0000 S   0  0  0  0  0  0  0  0  0  0  0  0
    5.8087   -1.8207    0.0000 O   0  0  0  0  0  0  0  0  0  0  0  0
    3.2909   -1.0805    0.0000 C   0  0  0  0  0  0  0  0  0  0  0  0
    3.5051   -0.2601    0.0000 O   0  0  0  0  0  0  0  0  0  0  0  0
    4.9843   -1.0120    0.0000 C   0  0  0  0  0  0  0  0  0  0  0  0
    6.6447   -1.0101    0.0000 C   0  0  0  0  0  0  0  0  0  0  0  0
    5.8087   -0.1734    0.0000 O   0  0  0  0  0  0  0  0  0  0  0  0
  1  2  2  0  0  0  0
  1  3  1  0  0  0  0
  2 15  1  0  0  0  0
  3  6  2  0  0  0  0
  4  3  1  0  0  0  0
  5  6  1  0  0  0  0
  5 13  1  0  0  0  0
  6 14  1  0  0  0  0
  7  8  1  0  0  0  0
  7 10  2  0  0  0  0
  8  5  2  0  0  0  0
  9  7  1  0  0  0  0
  9 32  1  0  0  0  0
 10 11  1  0  0  0  0
 10 12  1  0  0  0  0
 11 32  1  0  0  0  0
 13 12  2  0  0  0  0
 15 14  2  0  0  0  0
 16 17  1  0  0  0  0
 16 18  1  0  0  0  0
 16 19  1  0  0  0  0
 17 21  1  0  0  0  0
 20 21  1  0  0  0  0
 21 25  2  0  0  0  0
 22 20  2  0  0  0  0
 22 23  1  0  0  0  0
 23 26  2  0  0  0  0
 24 11  1  0  0  0  0
 24 23  1  0  0  0  0
 24 34  1  6  0  0  0
 25 26  1  0  0  0  0
 25 27  1  0  0  0  0
 27 28  1  0  0  0  0
 29 28  1  0  0  0  0
 30 31  2  0  0  0  0
 30 36  2  0  0  0  0
 32 33  2  0  0  0  0
 34 30  1  0  0  0  0
 35 30  1  0  0  0  0
M  END
> <ID>
SCHEMBL21150797

> <InChIKey>
VQYPGOKNAIUPNL-OAQYLSRUSA-N

> <MW>
520.52

> <Series_Name>
Series_5

$$$$
SCHEMBL21150806
  Mrv1719007191900192D 0   0.00000     0.00000     0

 36 39  0  0  1  0              1 V2000 
    1.4306   -4.5536    0.0000 C   0  0  0  0  0  0  0  0  0  0  0  0
    1.6447   -5.3495    0.0000 C   0  0  0  0  0  0  0  0  0  0  0  0
    2.0076   -3.9701    0.0000 C   0  0  0  0  0  0  0  0  0  0  0  0
    1.0087   -2.9628    0.0000 C   0  0  0  0  0  0  0  0  0  0  0  0
    0.1864   -2.7340    0.0000 N   0  0  0  0  0  0  0  0  0  0  0  0
    1.8040   -3.1824    0.0000 C   0  0  0  0  0  0  0  0  0  0  0  0
    2.8188   -4.1868    0.0000 C   0  0  0  0  0  0  0  0  0  0  0  0
    3.3975   -3.6001    0.0000 C   0  0  0  0  0  0  0  0  0  0  0  0
    3.1831   -2.7922    0.0000 C   0  0  0  0  0  0  0  0  0  0  0  0
    3.7853   -2.2136    0.0000 C   0  0  0  0  0  0  0  0  0  0  0  0
    3.5790   -1.3669    0.0000 N   0  0  0  0  0  0  0  0  0  0  0  0
    4.5711   -2.4251    0.0000 C   0  0  0  0  0  0  0  0  0  0  0  0
    5.0205   -1.7149    0.0000 N   0  0  0  0  0  0  0  0  0  0  0  0
    4.7779   -3.2022    0.0000 C   0  0  0  0  0  0  0  0  0  0  0  0
    4.1895   -3.8196    0.0000 C   0  0  0  0  0  0  0  0  0  0  0  0
    3.0308   -4.9750    0.0000 C   0  0  0  0  0  0  0  0  0  0  0  0
    2.4251   -5.5757    0.0000 C   0  0  0  0  0  0  0  0  0  0  0  0
    6.2642   -3.8796    0.0000 C   0  0  0  0  0  0  0  0  0  0  0  0
    7.0940   -3.8848    0.0000 C   0  0  0  0  0  0  0  0  0  0  0  0
    5.8597   -3.1697    0.0000 C   0  0  0  0  0  0  0  0  0  0  0  0
    6.2652   -2.4516    0.0000 C   0  0  0  0  0  0  0  0  0  0  0  0
    5.8534   -1.7354    0.0000 C   0  0  2  0  0  0  0  0  0  0  0  0
    6.2392   -1.0517    0.0000 C   0  0  0  0  0  0  0  0  0  0  0  0
    7.0709   -1.0066    0.0000 S   0  0  0  0  0  0  0  0  0  0  0  0
    7.0968   -2.4580    0.0000 C   0  0  0  0  0  0  0  0  0  0  0  0
    7.5027   -3.1787    0.0000 C   0  0  0  0  0  0  0  0  0  0  0  0
    8.3261   -3.1565    0.0000 O   0  0  0  0  0  0  0  0  0  0  0  0
    7.4936   -4.5980    0.0000 O   0  0  0  0  0  0  0  0  0  0  0  0
    8.7490   -3.8781    0.0000 C   0  0  0  0  0  0  0  0  0  0  0  0
    9.5875   -3.8840    0.0000 C   0  0  0  0  0  0  0  0  0  0  0  0
    7.0834   -1.8392    0.0000 O   0  0  0  0  0  0  0  0  0  0  0  0
    4.4382   -1.0995    0.0000 C   0  0  0  0  0  0  0  0  0  0  0  0
    4.6974   -0.2734    0.0000 O   0  0  0  0  0  0  0  0  0  0  0  0
    7.9222   -1.0136    0.0000 C   0  0  0  0  0  0  0  0  0  0  0  0
    7.0834   -0.1740    0.0000 O   0  0  0  0  0  0  0  0  0  0  0  0
    7.1082   -5.3030    0.0000 C   0  0  0  0  0  0  0  0  0  0  0  0
  1  2  2  0  0  0  0
  1  3  1  0  0  0  0
  2 17  1  0  0  0  0
  3  7  2  0  0  0  0
  4  5  3  0  0  0  0
  6  3  1  0  0  0  0
  6  4  1  0  0  0  0
  7  8  1  0  0  0  0
  7 16  1  0  0  0  0
  8 15  2  0  0  0  0
  9  8  1  0  0  0  0
  9 10  2  0  0  0  0
 10 11  1  0  0  0  0
 10 12  1  0  0  0  0
 11 32  1  0  0  0  0
 12 14  2  0  0  0  0
 13 12  1  0  0  0  0
 13 32  1  0  0  0  0
 15 14  1  0  0  0  0
 17 16  2  0  0  0  0
 18 19  2  0  0  0  0
 18 20  1  0  0  0  0
 19 28  1  0  0  0  0
 20 21  2  0  0  0  0
 22 21  1  0  0  0  0
 21 25  1  0  0  0  0
 22 13  1  0  0  0  0
 22 23  1  1  0  0  0
 23 24  1  0  0  0  0
 24 31  2  0  0  0  0
 24 35  2  0  0  0  0
 25 26  2  0  0  0  0
 26 27  1  0  0  0  0
 26 19  1  0  0  0  0
 28 36  1  0  0  0  0
 29 30  1  0  0  0  0
 29 27  1  0  0  0  0
 32 33  2  0  0  0  0
 34 24  1  0  0  0  0
M  END
> <ID>
SCHEMBL21150806

> <InChIKey>
UJHFCYRAXQDDDQ-DEOSSOPVSA-N

> <MW>
505.59

> <Series_Name>
Series_5

$$$$
SCHEMBL21151698
  Mrv1719007191902162D 0   0.00000     0.00000     0

 35 38  0  0  1  0              1 V2000 
    0.0866   -9.6714    0.0000 C   0  0  0  0  0  0  0  0  0  0  0  0
    0.2936  -10.4672    0.0000 C   0  0  0  0  0  0  0  0  0  0  0  0
    0.6624   -9.0904    0.0000 C   0  0  0  0  0  0  0  0  0  0  0  0
    0.4331   -8.2792    0.0000 F   0  0  0  0  0  0  0  0  0  0  0  0
    1.4579   -9.3023    0.0000 C   0  0  0  0  0  0  0  0  0  0  0  0
    2.0526   -8.7239    0.0000 C   0  0  0  0  0  0  0  0  0  0  0  0
    1.8888   -7.8946    0.0000 C   0  0  0  0  0  0  0  0  0  0  0  0
    2.4874   -7.3619    0.0000 C   0  0  0  0  0  0  0  0  0  0  0  0
    2.4751   -6.5219    0.0000 N   0  0  0  0  0  0  0  0  0  0  0  0
    3.7497   -6.9427    0.0000 N   0  0  0  0  0  0  0  0  0  0  0  0
    3.2712   -7.6249    0.0000 C   0  0  0  0  0  0  0  0  0  0  0  0
    3.4327   -8.4202    0.0000 C   0  0  0  0  0  0  0  0  0  0  0  0
    2.8270   -8.9844    0.0000 C   0  0  0  0  0  0  0  0  0  0  0  0
    1.6784  -10.0922    0.0000 C   0  0  0  0  0  0  0  0  0  0  0  0
    1.0802  -10.6920    0.0000 C   0  0  0  0  0  0  0  0  0  0  0  0
    7.0602   -9.8083    0.0000 C   0  0  0  0  0  0  0  0  0  0  0  0
    6.2125   -9.8014    0.0000 O   0  0  0  0  0  0  0  0  0  0  0  0
    4.9907   -9.0918    0.0000 C   0  0  0  0  0  0  0  0  0  0  0  0
    5.8193   -9.0929    0.0000 C   0  0  0  0  0  0  0  0  0  0  0  0
    4.5795   -8.3744    0.0000 C   0  0  0  0  0  0  0  0  0  0  0  0
    4.9911   -7.6625    0.0000 C   0  0  0  0  0  0  0  0  0  0  0  0
    4.5818   -6.9433    0.0000 C   0  0  2  0  0  0  0  0  0  0  0  0
    4.9646   -6.2799    0.0000 C   0  0  0  0  0  0  0  0  0  0  0  0
    5.8041   -6.2249    0.0000 S   0  0  0  0  0  0  0  0  0  0  0  0
    6.2280   -8.3809    0.0000 C   0  0  0  0  0  0  0  0  0  0  0  0
    7.0416   -8.3658    0.0000 O   0  0  0  0  0  0  0  0  0  0  0  0
    5.8198   -7.6745    0.0000 C   0  0  0  0  0  0  0  0  0  0  0  0
    8.2978   -9.0901    0.0000 C   0  0  0  0  0  0  0  0  0  0  0  0
    7.4659   -9.0919    0.0000 C   0  0  0  0  0  0  0  0  0  0  0  0
    5.8041   -7.0540    0.0000 O   0  0  0  0  0  0  0  0  0  0  0  0
    3.3155   -6.3342    0.0000 C   0  0  0  0  0  0  0  0  0  0  0  0
    3.4652   -5.4700    0.0000 O   0  0  0  0  0  0  0  0  0  0  0  0
    6.6518   -6.2441    0.0000 C   0  0  0  0  0  0  0  0  0  0  0  0
    5.8041   -5.3957    0.0000 O   0  0  0  0  0  0  0  0  0  0  0  0
    1.7759   -6.1219    0.0000 C   0  0  0  0  0  0  0  0  0  0  0  0
  1  2  2  0  0  0  0
  1  3  1  0  0  0  0
  2 15  1  0  0  0  0
  3  5  2  0  0  0  0
  4  3  1  0  0  0  0
  5  6  1  0  0  0  0
  5 14  1  0  0  0  0
  6 13  2  0  0  0  0
  7  8  2  0  0  0  0
  7  6  1  0  0  0  0
  8  9  1  0  0  0  0
  8 11  1  0  0  0  0
  9 31  1  0  0  0  0
 10 11  1  0  0  0  0
 10 31  1  0  0  0  0
 11 12  2  0  0  0  0
 12 13  1  0  0  0  0
 15 14  2  0  0  0  0
 16 17  1  0  0  0  0
 18 19  2  0  0  0  0
 18 20  1  0  0  0  0
 19 17  1  0  0  0  0
 20 21  2  0  0  0  0
 22 21  1  0  0  0  0
 21 27  1  0  0  0  0
 22 10  1  0  0  0  0
 22 23  1  1  0  0  0
 24 23  1  0  0  0  0
 24 30  2  0  0  0  0
 24 33  1  0  0  0  0
 25 26  1  0  0  0  0
 25 19  1  0  0  0  0
 27 25  2  0  0  0  0
 28 29  1  0  0  0  0
 29 26  1  0  0  0  0
 31 32  2  0  0  0  0
 34 24  2  0  0  0  0
 35  9  1  0  0  0  0
M  END
> <ID>
SCHEMBL21151698

> <InChIKey>
LGNPETMWBNZUSV-QHCPKHFHSA-N

> <MW>
498.57

> <Series_Name>
Series_5

$$$$
SCHEMBL21153934
  Mrv1719007191910452D 0   0.00000     0.00000     0

 29 34  0  0  0  0              1 V2000 
    8.6726   -2.0994    0.0000 N   0  0  0  0  0  0  0  0  0  0  0  0
    8.9552   -2.8825    0.0000 C   0  0  0  0  0  0  0  0  0  0  0  0
    9.7347   -3.0799    0.0000 C   0  0  0  0  0  0  0  0  0  0  0  0
   10.2971   -2.4493    0.0000 O   0  0  0  0  0  0  0  0  0  0  0  0
    1.6121   -2.5493    0.0000 N   0  0  0  0  0  0  0  0  0  0  0  0
    2.7269   -2.4779    0.0000 C   0  0  0  0  0  0  0  0  0  0  0  0
    2.1910   -1.2465    0.0000 C   0  0  0  0  0  0  0  0  0  0  0  0
    2.9061   -1.6610    0.0000 C   0  0  0  0  0  0  0  0  0  0  0  0
    1.5716   -1.7898    0.0000 C   0  0  0  0  0  0  0  0  0  0  0  0
    0.7643   -1.5178    0.0000 C   0  0  0  0  0  0  0  0  0  0  0  0
    0.1058   -2.1100    0.0000 C   0  0  0  0  0  0  0  0  0  0  0  0
    0.6087   -0.6984    0.0000 C   0  0  0  0  0  0  0  0  0  0  0  0
    1.2189   -0.1671    0.0000 C   0  0  0  0  0  0  0  0  0  0  0  0
    3.6869   -1.4133    0.0000 C   0  0  0  0  0  0  0  0  0  0  0  0
    4.2738   -1.9494    0.0000 N   0  0  0  0  0  0  0  0  0  0  0  0
    4.1003   -2.8181    0.0000 C   0  0  0  0  0  0  0  0  0  0  0  0
    3.3513   -3.0170    0.0000 C   0  0  0  0  0  0  0  0  0  0  0  0
    2.0294   -0.4624    0.0000 C   0  0  0  0  0  0  0  0  0  0  0  0
    5.7024   -2.2670    0.0000 C   0  0  0  0  0  0  0  0  0  0  0  0
    6.4998   -2.0625    0.0000 C   0  0  0  0  0  0  0  0  0  0  0  0
    5.0825   -1.7220    0.0000 C   0  0  0  0  0  0  0  0  0  0  0  0
    6.0526   -0.6899    0.0000 C   0  0  0  0  0  0  0  0  0  0  0  0
    6.6745   -1.2320    0.0000 C   0  0  0  0  0  0  0  0  0  0  0  0
    7.5229   -1.1497    0.0000 O   0  0  0  0  0  0  0  0  0  0  0  0
    7.1979   -2.4743    0.0000 N   0  0  0  0  0  0  0  0  0  0  0  0
    5.2720   -0.9000    0.0000 C   0  0  0  0  0  0  0  0  0  0  0  0
    7.8587   -1.9157    0.0000 C   0  0  0  0  0  0  0  0  0  0  0  0
   10.0661   -1.6854    0.0000 C   0  0  0  0  0  0  0  0  0  0  0  0
    9.2671   -1.4841    0.0000 C   0  0  0  0  0  0  0  0  0  0  0  0
  1  2  1  0  0  0  0
  1 29  1  0  0  0  0
  2  3  1  0  0  0  0
  4  3  1  0  0  0  0
  4 28  1  0  0  0  0
  5  6  1  0  0  0  0
  6  8  2  0  0  0  0
  7  8  1  0  0  0  0
  7  9  1  0  0  0  0
  8 14  1  0  0  0  0
  9  5  1  0  0  0  0
 10  9  2  0  0  0  0
 10 12  1  0  0  0  0
 11 10  1  0  0  0  0
 12 13  2  0  0  0  0
 13 18  1  0  0  0  0
 14 15  1  0  0  0  0
 15 21  1  0  0  0  0
 16 15  1  0  0  0  0
 16 17  1  0  0  0  0
 17  6  1  0  0  0  0
 18  7  2  0  0  0  0
 19 20  1  0  0  0  0
 20 25  1  0  0  0  0
 20 23  2  0  0  0  0
 21 19  2  0  0  0  0
 21 26  1  0  0  0  0
 22 23  1  0  0  0  0
 23 24  1  0  0  0  0
 25 27  2  0  0  0  0
 26 22  2  0  0  0  0
 27 24  1  0  0  0  0
 27  1  1  0  0  0  0
 28 29  1  0  0  0  0
M  END
> <ID>
SCHEMBL21153934

> <InChIKey>
NPOQPIOBCPAPLO-UHFFFAOYSA-N

> <MW>
388.471

> <Series_Name>
Series_6

$$$$
SCHEMBL21153936
  Mrv1719007191910452D 0   0.00000     0.00000     0

 30 35  0  0  0  0              1 V2000 
    9.9638   -2.8272    0.0000 C   0  0  0  0  0  0  0  0  0  0  0  0
    9.6547   -2.0614    0.0000 N   0  0  0  0  0  0  0  0  0  0  0  0
   11.2986   -2.4006    0.0000 O   0  0  0  0  0  0  0  0  0  0  0  0
   10.7628   -2.9945    0.0000 C   0  0  0  0  0  0  0  0  0  0  0  0
    2.5702   -2.4789    0.0000 N   0  0  0  0  0  0  0  0  0  0  0  0
    3.6900   -2.4107    0.0000 C   0  0  0  0  0  0  0  0  0  0  0  0
    3.1778   -1.2035    0.0000 C   0  0  0  0  0  0  0  0  0  0  0  0
    3.8745   -1.6223    0.0000 C   0  0  0  0  0  0  0  0  0  0  0  0
    2.5296   -1.7512    0.0000 C   0  0  0  0  0  0  0  0  0  0  0  0
    0.7828   -0.4435    0.0000 O   0  0  0  0  0  0  0  0  0  0  0  0
    1.5987   -0.6876    0.0000 C   0  0  0  0  0  0  0  0  0  0  0  0
    2.1887   -0.1631    0.0000 C   0  0  0  0  0  0  0  0  0  0  0  0
    2.9918   -0.4004    0.0000 C   0  0  0  0  0  0  0  0  0  0  0  0
    4.6818   -1.3846    0.0000 C   0  0  0  0  0  0  0  0  0  0  0  0
    5.2187   -1.9049    0.0000 N   0  0  0  0  0  0  0  0  0  0  0  0
    4.2992   -2.9408    0.0000 C   0  0  0  0  0  0  0  0  0  0  0  0
    5.0673   -2.6841    0.0000 C   0  0  0  0  0  0  0  0  0  0  0  0
    1.7542   -1.4658    0.0000 C   0  0  0  0  0  0  0  0  0  0  0  0
    6.0568   -1.6813    0.0000 C   0  0  0  0  0  0  0  0  0  0  0  0
    6.2812   -0.9096    0.0000 C   0  0  0  0  0  0  0  0  0  0  0  0
    7.0733   -0.6570    0.0000 C   0  0  0  0  0  0  0  0  0  0  0  0
    7.7070   -1.2014    0.0000 C   0  0  0  0  0  0  0  0  0  0  0  0
    8.5326   -1.1220    0.0000 O   0  0  0  0  0  0  0  0  0  0  0  0
    7.4699   -2.0131    0.0000 C   0  0  0  0  0  0  0  0  0  0  0  0
    8.1933   -2.4268    0.0000 N   0  0  0  0  0  0  0  0  0  0  0  0
    6.6896   -2.2669    0.0000 C   0  0  0  0  0  0  0  0  0  0  0  0
    8.8689   -1.8823    0.0000 C   0  0  0  0  0  0  0  0  0  0  0  0
   11.0883   -1.6351    0.0000 C   0  0  0  0  0  0  0  0  0  0  0  0
   10.2789   -1.4726    0.0000 C   0  0  0  0  0  0  0  0  0  0  0  0
    0.1435   -0.9718    0.0000 C   0  0  0  0  0  0  0  0  0  0  0  0
  1  2  1  0  0  0  0
  2 29  1  0  0  0  0
  3  4  1  0  0  0  0
  4  1  1  0  0  0  0
  5  6  1  0  0  0  0
  6  8  2  0  0  0  0
  7  8  1  0  0  0  0
  8 14  1  0  0  0  0
  9  7  1  0  0  0  0
  9  5  1  0  0  0  0
 10 11  1  0  0  0  0
 10 30  1  0  0  0  0
 11 12  2  0  0  0  0
 11 18  1  0  0  0  0
 12 13  1  0  0  0  0
 13  7  2  0  0  0  0
 14 15  1  0  0  0  0
 15 19  1  0  0  0  0
 16 17  1  0  0  0  0
 16  6  1  0  0  0  0
 17 15  1  0  0  0  0
 18  9  2  0  0  0  0
 19 26  2  0  0  0  0
 20 19  1  0  0  0  0
 20 21  2  0  0  0  0
 22 21  1  0  0  0  0
 22 23  1  0  0  0  0
 24 25  1  0  0  0  0
 24 22  2  0  0  0  0
 25 27  2  0  0  0  0
 26 24  1  0  0  0  0
 27 23  1  0  0  0  0
 27  2  1  0  0  0  0
 28 29  1  0  0  0  0
 28  3  1  0  0  0  0
M  END
> <ID>
SCHEMBL21153936

> <InChIKey>
VDLNGALMZFXVHB-UHFFFAOYSA-N

> <MW>
404.47

> <Series_Name>
Series_6

$$$$
SCHEMBL21153939
  Mrv1719007191910452D 0   0.00000     0.00000     0

 29 34  0  0  0  0              1 V2000 
    8.5794   -3.8489    0.0000 C   0  0  0  0  0  0  0  0  0  0  0  0
    8.3169   -3.0765    0.0000 N   0  0  0  0  0  0  0  0  0  0  0  0
    9.9334   -3.4154    0.0000 O   0  0  0  0  0  0  0  0  0  0  0  0
    9.3709   -4.0096    0.0000 C   0  0  0  0  0  0  0  0  0  0  0  0
    1.2775   -3.4936    0.0000 N   0  0  0  0  0  0  0  0  0  0  0  0
    2.3654   -3.4182    0.0000 C   0  0  0  0  0  0  0  0  0  0  0  0
    1.8411   -2.2219    0.0000 C   0  0  0  0  0  0  0  0  0  0  0  0
    2.5573   -2.6447    0.0000 C   0  0  0  0  0  0  0  0  0  0  0  0
    1.2206   -2.7414    0.0000 C   0  0  0  0  0  0  0  0  0  0  0  0
    0.4383   -2.4933    0.0000 C   0  0  0  0  0  0  0  0  0  0  0  0
    0.2738   -1.7456    0.0000 C   0  0  0  0  0  0  0  0  0  0  0  0
    0.8847   -1.1678    0.0000 C   0  0  0  0  0  0  0  0  0  0  0  0
    0.5260   -0.3781    0.0000 Cl  0  0  0  0  0  0  0  0  0  0  0  0
    3.3406   -2.3858    0.0000 C   0  0  0  0  0  0  0  0  0  0  0  0
    3.9108   -2.9200    0.0000 N   0  0  0  0  0  0  0  0  0  0  0  0
    2.9800   -3.9705    0.0000 C   0  0  0  0  0  0  0  0  0  0  0  0
    3.7195   -3.7244    0.0000 C   0  0  0  0  0  0  0  0  0  0  0  0
    1.6362   -1.4024    0.0000 C   0  0  0  0  0  0  0  0  0  0  0  0
    4.7169   -2.6811    0.0000 C   0  0  0  0  0  0  0  0  0  0  0  0
    4.9201   -1.8974    0.0000 C   0  0  0  0  0  0  0  0  0  0  0  0
    5.7142   -1.6713    0.0000 C   0  0  0  0  0  0  0  0  0  0  0  0
    6.3353   -2.2266    0.0000 C   0  0  0  0  0  0  0  0  0  0  0  0
    7.1437   -2.1379    0.0000 O   0  0  0  0  0  0  0  0  0  0  0  0
    6.1653   -3.0269    0.0000 C   0  0  0  0  0  0  0  0  0  0  0  0
    6.8569   -3.4415    0.0000 N   0  0  0  0  0  0  0  0  0  0  0  0
    5.3565   -3.2380    0.0000 C   0  0  0  0  0  0  0  0  0  0  0  0
    7.5181   -2.8915    0.0000 C   0  0  0  0  0  0  0  0  0  0  0  0
    8.8726   -2.4768    0.0000 C   0  0  0  0  0  0  0  0  0  0  0  0
    9.7025   -2.6574    0.0000 C   0  0  0  0  0  0  0  0  0  0  0  0
  1  2  1  0  0  0  0
  2 28  1  0  0  0  0
  3  4  1  0  0  0  0
  3 29  1  0  0  0  0
  4  1  1  0  0  0  0
  5  6  1  0  0  0  0
  6  8  2  0  0  0  0
  7  8  1  0  0  0  0
  7  9  1  0  0  0  0
  8 14  1  0  0  0  0
  9  5  1  0  0  0  0
 10  9  2  0  0  0  0
 10 11  1  0  0  0  0
 11 12  2  0  0  0  0
 12 13  1  0  0  0  0
 12 18  1  0  0  0  0
 14 15  1  0  0  0  0
 15 19  1  0  0  0  0
 16 17  1  0  0  0  0
 16  6  1  0  0  0  0
 17 15  1  0  0  0  0
 18  7  2  0  0  0  0
 19 26  2  0  0  0  0
 20 19  1  0  0  0  0
 20 21  2  0  0  0  0
 22 21  1  0  0  0  0
 22 23  1  0  0  0  0
 24 25  1  0  0  0  0
 24 22  2  0  0  0  0
 25 27  2  0  0  0  0
 26 24  1  0  0  0  0
 27 23  1  0  0  0  0
 27  2  1  0  0  0  0
 28 29  1  0  0  0  0
M  END
> <ID>
SCHEMBL21153939

> <InChIKey>
AZMMYRDNPQGXPR-UHFFFAOYSA-N

> <MW>
408.89

> <Series_Name>
Series_6

$$$$
SCHEMBL21153940
  Mrv1719007191910452D 0   0.00000     0.00000     0

 31 36  0  0  0  0              1 V2000 
    8.1575   -4.2882    0.0000 N   0  0  0  0  0  0  0  0  0  0  0  0
    8.4551   -5.0729    0.0000 C   0  0  0  0  0  0  0  0  0  0  0  0
    9.7842   -4.6333    0.0000 O   0  0  0  0  0  0  0  0  0  0  0  0
    9.2305   -5.2686    0.0000 C   0  0  0  0  0  0  0  0  0  0  0  0
    1.1706   -4.7442    0.0000 N   0  0  0  0  0  0  0  0  0  0  0  0
    2.2649   -4.6756    0.0000 C   0  0  0  0  0  0  0  0  0  0  0  0
    2.4340   -3.8515    0.0000 C   0  0  0  0  0  0  0  0  0  0  0  0
    1.7228   -3.4333    0.0000 C   0  0  0  0  0  0  0  0  0  0  0  0
    1.1067   -3.9720    0.0000 C   0  0  0  0  0  0  0  0  0  0  0  0
    0.3324   -3.7146    0.0000 C   0  0  0  0  0  0  0  0  0  0  0  0
    0.1920   -2.9136    0.0000 C   0  0  0  0  0  0  0  0  0  0  0  0
    0.7835   -2.3389    0.0000 C   0  0  0  0  0  0  0  0  0  0  0  0
    0.5669   -1.5034    0.0000 O   0  0  0  0  0  0  0  0  0  0  0  0
    1.5645   -2.6149    0.0000 C   0  0  0  0  0  0  0  0  0  0  0  0
    3.1976   -3.6121    0.0000 C   0  0  0  0  0  0  0  0  0  0  0  0
    3.7954   -4.1650    0.0000 N   0  0  0  0  0  0  0  0  0  0  0  0
    2.8648   -5.2359    0.0000 C   0  0  0  0  0  0  0  0  0  0  0  0
    3.6303   -4.9749    0.0000 C   0  0  0  0  0  0  0  0  0  0  0  0
    4.6009   -3.9083    0.0000 C   0  0  0  0  0  0  0  0  0  0  0  0
    5.5922   -2.8740    0.0000 C   0  0  0  0  0  0  0  0  0  0  0  0
    6.2141   -3.4313    0.0000 C   0  0  0  0  0  0  0  0  0  0  0  0
    6.9992   -3.3271    0.0000 O   0  0  0  0  0  0  0  0  0  0  0  0
    5.9676   -4.2678    0.0000 C   0  0  0  0  0  0  0  0  0  0  0  0
    6.7281   -4.6580    0.0000 N   0  0  0  0  0  0  0  0  0  0  0  0
    5.2233   -4.4832    0.0000 C   0  0  0  0  0  0  0  0  0  0  0  0
    4.7962   -3.0930    0.0000 C   0  0  0  0  0  0  0  0  0  0  0  0
    7.3644   -4.1089    0.0000 C   0  0  0  0  0  0  0  0  0  0  0  0
    9.5499   -3.8743    0.0000 C   0  0  0  0  0  0  0  0  0  0  0  0
    8.7447   -3.6817    0.0000 C   0  0  0  0  0  0  0  0  0  0  0  0
    1.0736   -0.1504    0.0000 C   0  0  0  0  0  0  0  0  0  0  0  0
    1.2267   -0.9475    0.0000 C   0  0  0  0  0  0  0  0  0  0  0  0
  1  2  1  0  0  0  0
  1 29  1  0  0  0  0
  3  4  1  0  0  0  0
  4  2  1  0  0  0  0
  5  6  1  0  0  0  0
  6  7  2  0  0  0  0
  7  8  1  0  0  0  0
  7 15  1  0  0  0  0
  8  9  1  0  0  0  0
  9  5  1  0  0  0  0
 10  9  2  0  0  0  0
 10 11  1  0  0  0  0
 11 12  2  0  0  0  0
 12 13  1  0  0  0  0
 12 14  1  0  0  0  0
 14  8  2  0  0  0  0
 15 16  1  0  0  0  0
 16 19  1  0  0  0  0
 17 18  1  0  0  0  0
 17  6  1  0  0  0  0
 18 16  1  0  0  0  0
 19 25  2  0  0  0  0
 19 26  1  0  0  0  0
 20 21  1  0  0  0  0
 21 22  1  0  0  0  0
 23 21  2  0  0  0  0
 23 24  1  0  0  0  0
 24 27  2  0  0  0  0
 25 23  1  0  0  0  0
 26 20  2  0  0  0  0
 27 22  1  0  0  0  0
 27  1  1  0  0  0  0
 28 29  1  0  0  0  0
 28  3  1  0  0  0  0
 30 31  1  0  0  0  0
 31 13  1  0  0  0  0
M  END
> <ID>
SCHEMBL21153940

> <InChIKey>
LREXSBBMMVAUJC-UHFFFAOYSA-N

> <MW>
418.497

> <Series_Name>
Series_6

$$$$
SCHEMBL21154030
  Mrv1719007191911002D 0   0.00000     0.00000     0

 29 34  0  0  0  0              1 V2000 
    1.1606   -3.2790    0.0000 N   0  0  0  0  0  0  0  0  0  0  0  0
    2.2599   -3.2076    0.0000 C   0  0  0  0  0  0  0  0  0  0  0  0
    1.7292   -1.9872    0.0000 C   0  0  0  0  0  0  0  0  0  0  0  0
    1.1099   -2.5428    0.0000 C   0  0  0  0  0  0  0  0  0  0  0  0
    0.3146   -2.2813    0.0000 C   0  0  0  0  0  0  0  0  0  0  0  0
    0.1590   -1.4844    0.0000 C   0  0  0  0  0  0  0  0  0  0  0  0
    0.7582   -0.9397    0.0000 C   0  0  0  0  0  0  0  0  0  0  0  0
    0.6069   -0.1292    0.0000 C   0  0  0  0  0  0  0  0  0  0  0  0
    1.5718   -1.2386    0.0000 C   0  0  0  0  0  0  0  0  0  0  0  0
    2.4318   -2.4127    0.0000 C   0  0  0  0  0  0  0  0  0  0  0  0
    3.2429   -2.1510    0.0000 C   0  0  0  0  0  0  0  0  0  0  0  0
    3.8086   -2.7044    0.0000 N   0  0  0  0  0  0  0  0  0  0  0  0
    2.8868   -3.7551    0.0000 C   0  0  0  0  0  0  0  0  0  0  0  0
    3.6354   -3.5115    0.0000 C   0  0  0  0  0  0  0  0  0  0  0  0
    8.4161   -3.5957    0.0000 C   0  0  0  0  0  0  0  0  0  0  0  0
    8.1355   -2.8170    0.0000 N   0  0  0  0  0  0  0  0  0  0  0  0
    9.7581   -3.1551    0.0000 O   0  0  0  0  0  0  0  0  0  0  0  0
    9.2252   -3.7602    0.0000 C   0  0  0  0  0  0  0  0  0  0  0  0
    4.6296   -2.4502    0.0000 C   0  0  0  0  0  0  0  0  0  0  0  0
    4.8227   -1.6578    0.0000 C   0  0  0  0  0  0  0  0  0  0  0  0
    5.5951   -1.4240    0.0000 C   0  0  0  0  0  0  0  0  0  0  0  0
    6.2406   -2.0096    0.0000 C   0  0  0  0  0  0  0  0  0  0  0  0
    7.0087   -1.8705    0.0000 O   0  0  0  0  0  0  0  0  0  0  0  0
    6.0608   -2.7838    0.0000 C   0  0  0  0  0  0  0  0  0  0  0  0
    6.7383   -3.1776    0.0000 N   0  0  0  0  0  0  0  0  0  0  0  0
    5.2618   -3.0311    0.0000 C   0  0  0  0  0  0  0  0  0  0  0  0
    7.3666   -2.6422    0.0000 C   0  0  0  0  0  0  0  0  0  0  0  0
    9.5183   -2.4002    0.0000 C   0  0  0  0  0  0  0  0  0  0  0  0
    8.6999   -2.2069    0.0000 C   0  0  0  0  0  0  0  0  0  0  0  0
  1  2  1  0  0  0  0
  2 10  2  0  0  0  0
  3  4  1  0  0  0  0
  3 10  1  0  0  0  0
  4  1  1  0  0  0  0
  5  4  2  0  0  0  0
  5  6  1  0  0  0  0
  6  7  2  0  0  0  0
  7  8  1  0  0  0  0
  7  9  1  0  0  0  0
  9  3  2  0  0  0  0
 10 11  1  0  0  0  0
 11 12  1  0  0  0  0
 12 19  1  0  0  0  0
 13  2  1  0  0  0  0
 13 14  1  0  0  0  0
 14 12  1  0  0  0  0
 15 16  1  0  0  0  0
 16 29  1  0  0  0  0
 17 18  1  0  0  0  0
 17 28  1  0  0  0  0
 18 15  1  0  0  0  0
 19 26  2  0  0  0  0
 20 21  2  0  0  0  0
 20 19  1  0  0  0  0
 22 21  1  0  0  0  0
 22 23  1  0  0  0  0
 24 22  2  0  0  0  0
 24 25  1  0  0  0  0
 25 27  2  0  0  0  0
 26 24  1  0  0  0  0
 27 23  1  0  0  0  0
 27 16  1  0  0  0  0
 28 29  1  0  0  0  0
M  END
> <ID>
SCHEMBL21154030

> <InChIKey>
GTNXDYPHWOVZHF-UHFFFAOYSA-N

> <MW>
388.471

> <Series_Name>
Series_6

$$$$
SCHEMBL21154098
  Mrv1719007191912042D 0   0.00000     0.00000     0

 29 34  0  0  0  0              1 V2000 
    1.7533   -4.8863    0.0000 N   0  0  0  0  0  0  0  0  0  0  0  0
    2.8339   -4.8586    0.0000 C   0  0  0  0  0  0  0  0  0  0  0  0
    1.7125   -4.1351    0.0000 C   0  0  0  0  0  0  0  0  0  0  0  0
    2.3281   -3.5880    0.0000 C   0  0  0  0  0  0  0  0  0  0  0  0
    0.2874   -4.3976    0.0000 F   0  0  0  0  0  0  0  0  0  0  0  0
    0.9432   -3.8853    0.0000 C   0  0  0  0  0  0  0  0  0  0  0  0
    0.7857   -3.0337    0.0000 C   0  0  0  0  0  0  0  0  0  0  0  0
    1.3822   -2.4890    0.0000 C   0  0  0  0  0  0  0  0  0  0  0  0
    2.1616   -2.7594    0.0000 C   0  0  0  0  0  0  0  0  0  0  0  0
    3.0424   -4.0144    0.0000 C   0  0  0  0  0  0  0  0  0  0  0  0
    3.7974   -3.7529    0.0000 C   0  0  0  0  0  0  0  0  0  0  0  0
    4.3689   -4.2827    0.0000 N   0  0  0  0  0  0  0  0  0  0  0  0
    3.4594   -5.3929    0.0000 C   0  0  0  0  0  0  0  0  0  0  0  0
    4.2076   -5.1576    0.0000 C   0  0  0  0  0  0  0  0  0  0  0  0
    5.1715   -4.0653    0.0000 C   0  0  0  0  0  0  0  0  0  0  0  0
    5.4147   -3.2097    0.0000 C   0  0  0  0  0  0  0  0  0  0  0  0
    6.1131   -2.9801    0.0000 C   0  0  0  0  0  0  0  0  0  0  0  0
    6.4096   -2.1845    0.0000 N   0  0  0  0  0  0  0  0  0  0  0  0
    6.7179   -3.5546    0.0000 C   0  0  0  0  0  0  0  0  0  0  0  0
    7.4157   -3.1042    0.0000 O   0  0  0  0  0  0  0  0  0  0  0  0
    5.7684   -4.6300    0.0000 C   0  0  0  0  0  0  0  0  0  0  0  0
    6.5477   -4.3510    0.0000 C   0  0  0  0  0  0  0  0  0  0  0  0
    7.2828   -2.2967    0.0000 C   0  0  0  0  0  0  0  0  0  0  0  0
    7.7893   -1.6383    0.0000 N   0  0  0  0  0  0  0  0  0  0  0  0
    8.8815   -0.4024    0.0000 O   0  0  0  0  0  0  0  0  0  0  0  0
    9.1572   -1.2040    0.0000 C   0  0  0  0  0  0  0  0  0  0  0  0
    8.6031   -1.8620    0.0000 C   0  0  0  0  0  0  0  0  0  0  0  0
    7.6025   -0.8286    0.0000 C   0  0  0  0  0  0  0  0  0  0  0  0
    8.1773   -0.2721    0.0000 C   0  0  0  0  0  0  0  0  0  0  0  0
  1  2  1  0  0  0  0
  2 10  2  0  0  0  0
  3  4  1  0  0  0  0
  3  1  1  0  0  0  0
  4 10  1  0  0  0  0
  5  6  1  0  0  0  0
  6  3  2  0  0  0  0
  7  8  2  0  0  0  0
  7  6  1  0  0  0  0
  8  9  1  0  0  0  0
  9  4  2  0  0  0  0
 10 11  1  0  0  0  0
 11 12  1  0  0  0  0
 12 15  1  0  0  0  0
 13 14  1  0  0  0  0
 13  2  1  0  0  0  0
 14 12  1  0  0  0  0
 15 21  2  0  0  0  0
 16 15  1  0  0  0  0
 16 17  2  0  0  0  0
 17 18  1  0  0  0  0
 18 23  2  0  0  0  0
 19 20  1  0  0  0  0
 19 17  1  0  0  0  0
 21 22  1  0  0  0  0
 22 19  2  0  0  0  0
 23 24  1  0  0  0  0
 23 20  1  0  0  0  0
 25 26  1  0  0  0  0
 25 29  1  0  0  0  0
 26 27  1  0  0  0  0
 27 24  1  0  0  0  0
 28 29  1  0  0  0  0
 28 24  1  0  0  0  0
M  END
> <ID>
SCHEMBL21154098

> <InChIKey>
QZXDCRBGEKKKCV-UHFFFAOYSA-N

> <MW>
392.434

> <Series_Name>
Series_6

$$$$
SCHEMBL21154145
  Mrv1719007191912092D 0   0.00000     0.00000     0

 30 35  0  0  1  0              1 V2000 
    2.1413   -2.5223    0.0000 N   0  0  0  0  0  0  0  0  0  0  0  0
    3.2578   -2.4374    0.0000 C   0  0  0  0  0  0  0  0  0  0  0  0
    3.4277   -1.6329    0.0000 C   0  0  0  0  0  0  0  0  0  0  0  0
    2.7074   -1.2224    0.0000 C   0  0  0  0  0  0  0  0  0  0  0  0
    2.0870   -1.7609    0.0000 C   0  0  0  0  0  0  0  0  0  0  0  0
    0.2890   -0.4466    0.0000 F   0  0  0  0  0  0  0  0  0  0  0  0
    1.1100   -0.6917    0.0000 C   0  0  0  0  0  0  0  0  0  0  0  0
    1.7428   -0.1722    0.0000 C   0  0  0  0  0  0  0  0  0  0  0  0
    2.5297   -0.4201    0.0000 C   0  0  0  0  0  0  0  0  0  0  0  0
    4.2171   -1.3759    0.0000 C   0  0  0  0  0  0  0  0  0  0  0  0
    4.8081   -1.9180    0.0000 N   0  0  0  0  0  0  0  0  0  0  0  0
    4.6500   -2.7443    0.0000 C   0  0  0  0  0  0  0  0  0  0  0  0
    3.8575   -3.0029    0.0000 C   0  0  0  0  0  0  0  0  0  0  0  0
    1.3177   -1.4943    0.0000 C   0  0  0  0  0  0  0  0  0  0  0  0
    9.1695   -1.9968    0.0000 N   0  0  0  0  0  0  0  0  0  0  0  0
    9.4559   -2.7831    0.0000 C   0  0  0  0  0  0  0  0  0  0  0  0
   10.2723   -2.9571    0.0000 C   0  0  0  0  0  0  0  0  0  0  0  0
   10.7721   -2.3383    0.0000 O   0  0  0  0  0  0  0  0  0  0  0  0
    5.6169   -1.6676    0.0000 C   0  0  0  0  0  0  0  0  0  0  0  0
    6.6005   -0.6404    0.0000 C   0  0  0  0  0  0  0  0  0  0  0  0
    7.2182   -1.1663    0.0000 C   0  0  0  0  0  0  0  0  0  0  0  0
    8.0134   -1.0773    0.0000 O   0  0  0  0  0  0  0  0  0  0  0  0
    7.0427   -1.9565    0.0000 C   0  0  0  0  0  0  0  0  0  0  0  0
    7.6981   -2.3909    0.0000 N   0  0  0  0  0  0  0  0  0  0  0  0
    6.2250   -2.2254    0.0000 C   0  0  0  0  0  0  0  0  0  0  0  0
    5.8060   -0.8704    0.0000 C   0  0  0  0  0  0  0  0  0  0  0  0
    8.3784   -1.8277    0.0000 C   0  0  0  0  0  0  0  0  0  0  0  0
    9.7454   -1.4043    0.0000 C   0  0  0  0  0  0  0  0  0  0  0  0
   10.5811   -1.5638    0.0000 C   0  0  1  0  0  0  0  0  0  0  0  0
   11.0349   -0.9932    0.0000 C   0  0  0  0  0  0  0  0  0  0  0  0
  1  2  1  0  0  0  0
  2  3  2  0  0  0  0
  3  4  1  0  0  0  0
  3 10  1  0  0  0  0
  5  4  1  0  0  0  0
  5  1  1  0  0  0  0
  6  7  1  0  0  0  0
  7  8  2  0  0  0  0
  7 14  1  0  0  0  0
  8  9  1  0  0  0  0
  9  4  2  0  0  0  0
 11 10  1  0  0  0  0
 11 19  1  0  0  0  0
 12 11  1  0  0  0  0
 12 13  1  0  0  0  0
 13  2  1  0  0  0  0
 14  5  2  0  0  0  0
 15 16  1  0  0  0  0
 16 17  1  0  0  0  0
 18 17  1  0  0  0  0
 19 25  2  0  0  0  0
 19 26  1  0  0  0  0
 20 21  1  0  0  0  0
 21 22  1  0  0  0  0
 23 24  1  0  0  0  0
 23 21  2  0  0  0  0
 24 27  2  0  0  0  0
 25 23  1  0  0  0  0
 26 20  2  0  0  0  0
 27 22  1  0  0  0  0
 27 15  1  0  0  0  0
 28 15  1  0  0  0  0
 29 28  1  0  0  0  0
 29 30  1  1  0  0  0
 29 18  1  0  0  0  0
M  END
> <ID>
SCHEMBL21154145

> <InChIKey>
VYVOKNARDAYSMQ-CQSZACIVSA-N

> <MW>
406.461

> <Series_Name>
Series_6

$$$$
SCHEMBL21154146
  Mrv1719007191912092D 0   0.00000     0.00000     0

 30 35  0  0  1  0              1 V2000 
    2.0741   -2.5449    0.0000 N   0  0  0  0  0  0  0  0  0  0  0  0
    3.1736   -2.4902    0.0000 C   0  0  0  0  0  0  0  0  0  0  0  0
    3.3246   -1.6585    0.0000 C   0  0  0  0  0  0  0  0  0  0  0  0
    2.6313   -1.2576    0.0000 C   0  0  0  0  0  0  0  0  0  0  0  0
    2.0240   -1.7912    0.0000 C   0  0  0  0  0  0  0  0  0  0  0  0
    1.2229   -1.5284    0.0000 C   0  0  0  0  0  0  0  0  0  0  0  0
    1.0602   -0.7196    0.0000 C   0  0  0  0  0  0  0  0  0  0  0  0
    0.2799   -0.4581    0.0000 F   0  0  0  0  0  0  0  0  0  0  0  0
    1.6637   -0.1556    0.0000 C   0  0  0  0  0  0  0  0  0  0  0  0
    2.4495   -0.4247    0.0000 C   0  0  0  0  0  0  0  0  0  0  0  0
    4.0828   -1.4136    0.0000 C   0  0  0  0  0  0  0  0  0  0  0  0
    4.6826   -1.9341    0.0000 N   0  0  0  0  0  0  0  0  0  0  0  0
    3.7640   -3.0216    0.0000 C   0  0  0  0  0  0  0  0  0  0  0  0
    4.5045   -2.7772    0.0000 C   0  0  0  0  0  0  0  0  0  0  0  0
    8.9325   -2.0104    0.0000 N   0  0  0  0  0  0  0  0  0  0  0  0
    9.2318   -2.8198    0.0000 C   0  0  0  0  0  0  0  0  0  0  0  0
   10.0116   -2.9939    0.0000 C   0  0  0  0  0  0  0  0  0  0  0  0
   10.5103   -2.3667    0.0000 O   0  0  0  0  0  0  0  0  0  0  0  0
    5.4697   -1.7004    0.0000 C   0  0  0  0  0  0  0  0  0  0  0  0
    5.6635   -0.8907    0.0000 C   0  0  0  0  0  0  0  0  0  0  0  0
    6.4101   -0.6143    0.0000 C   0  0  0  0  0  0  0  0  0  0  0  0
    7.0449   -1.1819    0.0000 C   0  0  0  0  0  0  0  0  0  0  0  0
    7.8127   -1.0943    0.0000 O   0  0  0  0  0  0  0  0  0  0  0  0
    6.8362   -1.9882    0.0000 C   0  0  0  0  0  0  0  0  0  0  0  0
    7.5328   -2.3922    0.0000 N   0  0  0  0  0  0  0  0  0  0  0  0
    6.0887   -2.2522    0.0000 C   0  0  0  0  0  0  0  0  0  0  0  0
    8.1840   -1.8503    0.0000 C   0  0  0  0  0  0  0  0  0  0  0  0
    9.5051   -1.4008    0.0000 C   0  0  0  0  0  0  0  0  0  0  0  0
   10.2981   -1.5738    0.0000 C   0  0  2  0  0  0  0  0  0  0  0  0
   10.8953   -0.8409    0.0000 C   0  0  0  0  0  0  0  0  0  0  0  0
  1  2  1  0  0  0  0
  2  3  2  0  0  0  0
  3  4  1  0  0  0  0
  3 11  1  0  0  0  0
  4  5  1  0  0  0  0
  5  1  1  0  0  0  0
  6  5  2  0  0  0  0
  6  7  1  0  0  0  0
  7  9  2  0  0  0  0
  8  7  1  0  0  0  0
  9 10  1  0  0  0  0
 10  4  2  0  0  0  0
 11 12  1  0  0  0  0
 12 19  1  0  0  0  0
 13 14  1  0  0  0  0
 13  2  1  0  0  0  0
 14 12  1  0  0  0  0
 15 16  1  0  0  0  0
 15 28  1  0  0  0  0
 16 17  1  0  0  0  0
 18 17  1  0  0  0  0
 19 20  1  0  0  0  0
 20 21  2  0  0  0  0
 22 21  1  0  0  0  0
 22 23  1  0  0  0  0
 24 22  2  0  0  0  0
 24 25  1  0  0  0  0
 25 27  2  0  0  0  0
 26 19  2  0  0  0  0
 26 24  1  0  0  0  0
 27 23  1  0  0  0  0
 27 15  1  0  0  0  0
 29 28  1  0  0  0  0
 29 18  1  0  0  0  0
 29 30  1  6  0  0  0
M  END
> <ID>
SCHEMBL21154146

> <InChIKey>
VYVOKNARDAYSMQ-AWEZNQCLSA-N

> <MW>
406.461

> <Series_Name>
Series_6

$$$$
SCHEMBL21154148
  Mrv1719007191912102D 0   0.00000     0.00000     0

 30 35  0  0  1  0              1 V2000 
    2.1657   -2.4771    0.0000 N   0  0  0  0  0  0  0  0  0  0  0  0
    3.2981   -2.4095    0.0000 C   0  0  0  0  0  0  0  0  0  0  0  0
    3.4778   -1.6233    0.0000 C   0  0  0  0  0  0  0  0  0  0  0  0
    2.7405   -1.2253    0.0000 C   0  0  0  0  0  0  0  0  0  0  0  0
    2.1205   -1.7695    0.0000 C   0  0  0  0  0  0  0  0  0  0  0  0
    1.3436   -1.5221    0.0000 C   0  0  0  0  0  0  0  0  0  0  0  0
    0.3397   -0.4530    0.0000 F   0  0  0  0  0  0  0  0  0  0  0  0
    1.1478   -0.7144    0.0000 C   0  0  0  0  0  0  0  0  0  0  0  0
    1.7519   -0.1770    0.0000 C   0  0  0  0  0  0  0  0  0  0  0  0
    2.5650   -0.4360    0.0000 C   0  0  0  0  0  0  0  0  0  0  0  0
    4.2855   -1.3989    0.0000 C   0  0  0  0  0  0  0  0  0  0  0  0
    4.8692   -1.8967    0.0000 N   0  0  0  0  0  0  0  0  0  0  0  0
    3.9393   -2.9632    0.0000 C   0  0  0  0  0  0  0  0  0  0  0  0
    4.6927   -2.7226    0.0000 C   0  0  0  0  0  0  0  0  0  0  0  0
   10.3771   -2.9388    0.0000 C   0  0  0  0  0  0  0  0  0  0  0  0
    9.5443   -2.7246    0.0000 C   0  0  0  0  0  0  0  0  0  0  0  0
    9.2572   -1.9817    0.0000 N   0  0  0  0  0  0  0  0  0  0  0  0
   10.8992   -2.3214    0.0000 O   0  0  0  0  0  0  0  0  0  0  0  0
    5.6863   -1.6631    0.0000 C   0  0  0  0  0  0  0  0  0  0  0  0
    6.6509   -0.6358    0.0000 C   0  0  0  0  0  0  0  0  0  0  0  0
    7.2942   -1.1825    0.0000 C   0  0  0  0  0  0  0  0  0  0  0  0
    8.0965   -1.0758    0.0000 O   0  0  0  0  0  0  0  0  0  0  0  0
    7.1119   -1.9621    0.0000 C   0  0  0  0  0  0  0  0  0  0  0  0
    7.8134   -2.3780    0.0000 N   0  0  0  0  0  0  0  0  0  0  0  0
    6.2897   -2.2281    0.0000 C   0  0  0  0  0  0  0  0  0  0  0  0
    5.8758   -0.8937    0.0000 C   0  0  0  0  0  0  0  0  0  0  0  0
    8.4662   -1.8192    0.0000 C   0  0  0  0  0  0  0  0  0  0  0  0
   10.6668   -1.5757    0.0000 C   0  0  0  0  0  0  0  0  0  0  0  0
    9.8403   -1.4036    0.0000 C   0  0  2  0  0  0  0  0  0  0  0  0
    9.6202   -0.6751    0.0000 C   0  0  0  0  0  0  0  0  0  0  0  0
  1  2  1  0  0  0  0
  2  3  2  0  0  0  0
  3  4  1  0  0  0  0
  3 11  1  0  0  0  0
  4  5  1  0  0  0  0
  5  1  1  0  0  0  0
  6  5  2  0  0  0  0
  6  8  1  0  0  0  0
  7  8  1  0  0  0  0
  8  9  2  0  0  0  0
  9 10  1  0  0  0  0
 10  4  2  0  0  0  0
 11 12  1  0  0  0  0
 12 19  1  0  0  0  0
 13 14  1  0  0  0  0
 13  2  1  0  0  0  0
 14 12  1  0  0  0  0
 15 16  1  0  0  0  0
 17 16  1  0  0  0  0
 18 15  1  0  0  0  0
 18 28  1  0  0  0  0
 19 25  2  0  0  0  0
 19 26  1  0  0  0  0
 20 21  1  0  0  0  0
 21 22  1  0  0  0  0
 23 21  2  0  0  0  0
 23 24  1  0  0  0  0
 24 27  2  0  0  0  0
 25 23  1  0  0  0  0
 26 20  2  0  0  0  0
 27 22  1  0  0  0  0
 27 17  1  0  0  0  0
 29 28  1  0  0  0  0
 29 17  1  0  0  0  0
 29 30  1  1  0  0  0
M  END
> <ID>
SCHEMBL21154148

> <InChIKey>
IVSGXFRSZPASAJ-AWEZNQCLSA-N

> <MW>
406.461

> <Series_Name>
Series_6

$$$$
SCHEMBL21154154
  Mrv1719007191912102D 0   0.00000     0.00000     0

 31 36  0  0  0  0              1 V2000 
    3.3522   -4.9485    0.0000 N   0  0  0  0  0  0  0  0  0  0  0  0
    3.3637   -5.8583    0.0000 C   0  0  0  0  0  0  0  0  0  0  0  0
    1.3169   -4.1305    0.0000 C   0  0  0  0  0  0  0  0  0  0  0  0
    1.8250   -4.7050    0.0000 C   0  0  0  0  0  0  0  0  0  0  0  0
    1.5743   -3.2984    0.0000 C   0  0  0  0  0  0  0  0  0  0  0  0
    0.9897   -2.6817    0.0000 O   0  0  0  0  0  0  0  0  0  0  0  0
    2.3965   -3.1412    0.0000 C   0  0  0  0  0  0  0  0  0  0  0  0
    2.9453   -3.7515    0.0000 C   0  0  0  0  0  0  0  0  0  0  0  0
    3.7959   -3.7468    0.0000 C   0  0  0  0  0  0  0  0  0  0  0  0
    4.3367   -3.1534    0.0000 C   0  0  0  0  0  0  0  0  0  0  0  0
    5.1400   -3.2883    0.0000 N   0  0  0  0  0  0  0  0  0  0  0  0
    4.0447   -4.5334    0.0000 C   0  0  0  0  0  0  0  0  0  0  0  0
    4.8608   -4.7098    0.0000 C   0  0  0  0  0  0  0  0  0  0  0  0
    5.4069   -4.0709    0.0000 C   0  0  0  0  0  0  0  0  0  0  0  0
    2.7022   -4.5397    0.0000 C   0  0  0  0  0  0  0  0  0  0  0  0
    5.4888   -1.9466    0.0000 C   0  0  0  0  0  0  0  0  0  0  0  0
    5.6966   -2.7169    0.0000 C   0  0  0  0  0  0  0  0  0  0  0  0
    6.0180   -1.3269    0.0000 C   0  0  0  0  0  0  0  0  0  0  0  0
    7.5025   -0.9897    0.0000 O   0  0  0  0  0  0  0  0  0  0  0  0
    6.8352   -1.4893    0.0000 C   0  0  0  0  0  0  0  0  0  0  0  0
    7.1224   -2.2718    0.0000 C   0  0  0  0  0  0  0  0  0  0  0  0
    7.8856   -2.2667    0.0000 N   0  0  0  0  0  0  0  0  0  0  0  0
    6.4792   -2.8844    0.0000 C   0  0  0  0  0  0  0  0  0  0  0  0
    8.1868   -1.5106    0.0000 C   0  0  0  0  0  0  0  0  0  0  0  0
    8.9391   -1.2451    0.0000 N   0  0  0  0  0  0  0  0  0  0  0  0
   10.5035   -0.7023    0.0000 O   0  0  0  0  0  0  0  0  0  0  0  0
   10.3214   -1.5777    0.0000 C   0  0  0  0  0  0  0  0  0  0  0  0
    9.6256   -1.8157    0.0000 C   0  0  0  0  0  0  0  0  0  0  0  0
    9.1622   -0.4763    0.0000 C   0  0  0  0  0  0  0  0  0  0  0  0
    9.9260   -0.2040    0.0000 C   0  0  0  0  0  0  0  0  0  0  0  0
    0.1756   -2.8804    0.0000 C   0  0  0  0  0  0  0  0  0  0  0  0
  1  2  1  0  0  0  0
  3  4  1  0  0  0  0
  3  5  2  0  0  0  0
  4 15  2  0  0  0  0
  5  6  1  0  0  0  0
  5  7  1  0  0  0  0
  7  8  2  0  0  0  0
  8  9  1  0  0  0  0
  9 12  2  0  0  0  0
 10  9  1  0  0  0  0
 10 11  1  0  0  0  0
 11 17  1  0  0  0  0
 12 13  1  0  0  0  0
 12  1  1  0  0  0  0
 14 11  1  0  0  0  0
 14 13  1  0  0  0  0
 15  1  1  0  0  0  0
 15  8  1  0  0  0  0
 16 17  1  0  0  0  0
 16 18  2  0  0  0  0
 17 23  2  0  0  0  0
 18 20  1  0  0  0  0
 19 20  1  0  0  0  0
 20 21  2  0  0  0  0
 21 22  1  0  0  0  0
 21 23  1  0  0  0  0
 22 24  2  0  0  0  0
 24 19  1  0  0  0  0
 24 25  1  0  0  0  0
 26 27  1  0  0  0  0
 27 28  1  0  0  0  0
 28 25  1  0  0  0  0
 29 30  1  0  0  0  0
 29 25  1  0  0  0  0
 30 26  1  0  0  0  0
 31  6  1  0  0  0  0
M  END
> <ID>
SCHEMBL21154154

> <InChIKey>
LEHLPGGASMUMEZ-UHFFFAOYSA-N

> <MW>
418.497

> <Series_Name>
Series_6

$$$$
SCHEMBL21154157
  Mrv1719007191912102D 0   0.00000     0.00000     0

 30 35  0  0  0  0              1 V2000 
    1.2850   -4.2511    0.0000 C   0  0  0  0  0  0  0  0  0  0  0  0
    1.7940   -4.8700    0.0000 C   0  0  0  0  0  0  0  0  0  0  0  0
    1.5157   -3.4234    0.0000 C   0  0  0  0  0  0  0  0  0  0  0  0
    0.9655   -2.7830    0.0000 O   0  0  0  0  0  0  0  0  0  0  0  0
    2.2886   -3.2475    0.0000 C   0  0  0  0  0  0  0  0  0  0  0  0
    2.8475   -3.8716    0.0000 C   0  0  0  0  0  0  0  0  0  0  0  0
    3.6638   -3.8746    0.0000 C   0  0  0  0  0  0  0  0  0  0  0  0
    4.1967   -3.2454    0.0000 C   0  0  0  0  0  0  0  0  0  0  0  0
    4.9412   -3.3794    0.0000 N   0  0  0  0  0  0  0  0  0  0  0  0
    3.8980   -4.6789    0.0000 C   0  0  0  0  0  0  0  0  0  0  0  0
    5.2211   -4.2316    0.0000 C   0  0  0  0  0  0  0  0  0  0  0  0
    4.6784   -4.8773    0.0000 C   0  0  0  0  0  0  0  0  0  0  0  0
    3.2090   -5.4666    0.0000 N   0  0  0  0  0  0  0  0  0  0  0  0
    2.5658   -4.6897    0.0000 C   0  0  0  0  0  0  0  0  0  0  0  0
    5.2583   -1.9893    0.0000 C   0  0  0  0  0  0  0  0  0  0  0  0
    5.4984   -2.7906    0.0000 C   0  0  0  0  0  0  0  0  0  0  0  0
    5.8148   -1.3418    0.0000 C   0  0  0  0  0  0  0  0  0  0  0  0
    7.2414   -1.0223    0.0000 O   0  0  0  0  0  0  0  0  0  0  0  0
    6.6044   -1.5217    0.0000 C   0  0  0  0  0  0  0  0  0  0  0  0
    6.8362   -2.3174    0.0000 C   0  0  0  0  0  0  0  0  0  0  0  0
    7.5822   -2.3570    0.0000 N   0  0  0  0  0  0  0  0  0  0  0  0
    6.2617   -2.9856    0.0000 C   0  0  0  0  0  0  0  0  0  0  0  0
    7.8724   -1.5546    0.0000 C   0  0  0  0  0  0  0  0  0  0  0  0
    8.6330   -1.2495    0.0000 N   0  0  0  0  0  0  0  0  0  0  0  0
    9.2391   -1.8569    0.0000 C   0  0  0  0  0  0  0  0  0  0  0  0
   10.0102   -1.5760    0.0000 C   0  0  0  0  0  0  0  0  0  0  0  0
   10.1664   -0.7384    0.0000 O   0  0  0  0  0  0  0  0  0  0  0  0
    8.8595   -0.4520    0.0000 C   0  0  0  0  0  0  0  0  0  0  0  0
    9.5733   -0.1789    0.0000 C   0  0  0  0  0  0  0  0  0  0  0  0
    0.1420   -2.9633    0.0000 C   0  0  0  0  0  0  0  0  0  0  0  0
  1  2  1  0  0  0  0
  1  3  2  0  0  0  0
  2 14  2  0  0  0  0
  3  4  1  0  0  0  0
  3  5  1  0  0  0  0
  5  6  2  0  0  0  0
  6  7  1  0  0  0  0
  7 10  2  0  0  0  0
  8  9  1  0  0  0  0
  8  7  1  0  0  0  0
  9 11  1  0  0  0  0
  9 16  1  0  0  0  0
 10 12  1  0  0  0  0
 10 13  1  0  0  0  0
 11 12  1  0  0  0  0
 14 13  1  0  0  0  0
 14  6  1  0  0  0  0
 15 16  1  0  0  0  0
 15 17  2  0  0  0  0
 16 22  2  0  0  0  0
 17 19  1  0  0  0  0
 18 19  1  0  0  0  0
 19 20  2  0  0  0  0
 20 21  1  0  0  0  0
 21 23  2  0  0  0  0
 22 20  1  0  0  0  0
 23 18  1  0  0  0  0
 23 24  1  0  0  0  0
 25 26  1  0  0  0  0
 25 24  1  0  0  0  0
 26 27  1  0  0  0  0
 28 29  1  0  0  0  0
 28 24  1  0  0  0  0
 29 27  1  0  0  0  0
 30  4  1  0  0  0  0
M  END
> <ID>
SCHEMBL21154157

> <InChIKey>
NPUIZQYSGSBARX-UHFFFAOYSA-N

> <MW>
404.47

> <Series_Name>
Series_6

$$$$
SCHEMBL21154179
  Mrv1719007191912112D 0   0.00000     0.00000     0

 30 35  0  0  0  0              1 V2000 
    1.5906   -3.4323    0.0000 N   0  0  0  0  0  0  0  0  0  0  0  0
    2.4283   -3.3073    0.0000 C   0  0  0  0  0  0  0  0  0  0  0  0
    2.5493   -2.4679    0.0000 C   0  0  0  0  0  0  0  0  0  0  0  0
    1.7723   -2.1254    0.0000 C   0  0  0  0  0  0  0  0  0  0  0  0
    1.2569   -2.7291    0.0000 C   0  0  0  0  0  0  0  0  0  0  0  0
    0.4195   -2.5443    0.0000 C   0  0  0  0  0  0  0  0  0  0  0  0
    0.1782   -1.7554    0.0000 C   0  0  0  0  0  0  0  0  0  0  0  0
    0.7470   -1.1424    0.0000 C   0  0  0  0  0  0  0  0  0  0  0  0
    0.5023   -0.3627    0.0000 F   0  0  0  0  0  0  0  0  0  0  0  0
    1.5342   -1.3346    0.0000 C   0  0  0  0  0  0  0  0  0  0  0  0
    3.2781   -2.1590    0.0000 C   0  0  0  0  0  0  0  0  0  0  0  0
    3.9067   -2.6510    0.0000 N   0  0  0  0  0  0  0  0  0  0  0  0
    3.8010   -3.4822    0.0000 C   0  0  0  0  0  0  0  0  0  0  0  0
    3.0714   -3.7897    0.0000 C   0  0  0  0  0  0  0  0  0  0  0  0
    8.6202   -2.9941    0.0000 C   0  0  0  0  0  0  0  0  0  0  0  0
    8.2319   -2.2324    0.0000 N   0  0  0  0  0  0  0  0  0  0  0  0
    9.8783   -2.3719    0.0000 O   0  0  0  0  0  0  0  0  0  0  0  0
    9.4269   -3.0695    0.0000 C   0  0  0  0  0  0  0  0  0  0  0  0
    4.7032   -2.3649    0.0000 C   0  0  0  0  0  0  0  0  0  0  0  0
    4.7695   -1.5306    0.0000 C   0  0  0  0  0  0  0  0  0  0  0  0
    5.4781   -1.1586    0.0000 C   0  0  0  0  0  0  0  0  0  0  0  0
    6.1723   -1.6206    0.0000 C   0  0  0  0  0  0  0  0  0  0  0  0
    7.0041   -1.4790    0.0000 O   0  0  0  0  0  0  0  0  0  0  0  0
    6.1141   -2.4483    0.0000 C   0  0  0  0  0  0  0  0  0  0  0  0
    6.8646   -2.7625    0.0000 N   0  0  0  0  0  0  0  0  0  0  0  0
    5.3726   -2.8112    0.0000 C   0  0  0  0  0  0  0  0  0  0  0  0
    7.4605   -2.1611    0.0000 C   0  0  0  0  0  0  0  0  0  0  0  0
    8.7548   -1.5736    0.0000 C   0  0  0  0  0  0  0  0  0  0  0  0
    9.5565   -1.6469    0.0000 C   0  0  0  0  0  0  0  0  0  0  0  0
    1.2872   -4.2121    0.0000 C   0  0  0  0  0  0  0  0  0  0  0  0
  1  2  1  0  0  0  0
  1 30  1  0  0  0  0
  2  3  2  0  0  0  0
  3 11  1  0  0  0  0
  4  3  1  0  0  0  0
  4  5  1  0  0  0  0
  5  1  1  0  0  0  0
  6  5  2  0  0  0  0
  6  7  1  0  0  0  0
  7  8  2  0  0  0  0
  8  9  1  0  0  0  0
  8 10  1  0  0  0  0
 10  4  2  0  0  0  0
 11 12  1  0  0  0  0
 12 19  1  0  0  0  0
 13 12  1  0  0  0  0
 13 14  1  0  0  0  0
 14  2  1  0  0  0  0
 15 16  1  0  0  0  0
 17 18  1  0  0  0  0
 18 15  1  0  0  0  0
 19 26  2  0  0  0  0
 20 21  2  0  0  0  0
 20 19  1  0  0  0  0
 22 21  1  0  0  0  0
 22 23  1  0  0  0  0
 24 25  1  0  0  0  0
 24 22  2  0  0  0  0
 25 27  2  0  0  0  0
 26 24  1  0  0  0  0
 27 23  1  0  0  0  0
 27 16  1  0  0  0  0
 28 16  1  0  0  0  0
 28 29  1  0  0  0  0
 29 17  1  0  0  0  0
M  END
> <ID>
SCHEMBL21154179

> <InChIKey>
VTZZWLSIJMSIEV-UHFFFAOYSA-N

> <MW>
406.461

> <Series_Name>
Series_6

$$$$
SCHEMBL21154190
  Mrv1719007191912122D 0   0.00000     0.00000     0

 30 35  0  0  0  0              1 V2000 
    3.1259   -5.0952    0.0000 N   0  0  0  0  0  0  0  0  0  0  0  0
    3.1677   -5.9549    0.0000 C   0  0  0  0  0  0  0  0  0  0  0  0
    0.3126   -4.3763    0.0000 F   0  0  0  0  0  0  0  0  0  0  0  0
    1.1542   -4.2196    0.0000 C   0  0  0  0  0  0  0  0  0  0  0  0
    1.4068   -3.4428    0.0000 C   0  0  0  0  0  0  0  0  0  0  0  0
    2.1881   -3.2386    0.0000 C   0  0  0  0  0  0  0  0  0  0  0  0
    2.7364   -3.8538    0.0000 C   0  0  0  0  0  0  0  0  0  0  0  0
    3.5609   -3.8250    0.0000 C   0  0  0  0  0  0  0  0  0  0  0  0
    4.0793   -3.1958    0.0000 C   0  0  0  0  0  0  0  0  0  0  0  0
    4.8764   -3.3760    0.0000 N   0  0  0  0  0  0  0  0  0  0  0  0
    3.8125   -4.6109    0.0000 C   0  0  0  0  0  0  0  0  0  0  0  0
    4.6280   -4.8150    0.0000 C   0  0  0  0  0  0  0  0  0  0  0  0
    5.1460   -4.2048    0.0000 C   0  0  0  0  0  0  0  0  0  0  0  0
    2.4738   -4.6408    0.0000 C   0  0  0  0  0  0  0  0  0  0  0  0
    1.7041   -4.8226    0.0000 C   0  0  0  0  0  0  0  0  0  0  0  0
    5.1636   -1.9781    0.0000 C   0  0  0  0  0  0  0  0  0  0  0  0
    5.4189   -2.7811    0.0000 C   0  0  0  0  0  0  0  0  0  0  0  0
    5.7105   -1.3538    0.0000 C   0  0  0  0  0  0  0  0  0  0  0  0
    7.2209   -1.0003    0.0000 O   0  0  0  0  0  0  0  0  0  0  0  0
    6.5312   -1.5102    0.0000 C   0  0  0  0  0  0  0  0  0  0  0  0
    6.7745   -2.3029    0.0000 C   0  0  0  0  0  0  0  0  0  0  0  0
    7.5647   -2.2507    0.0000 N   0  0  0  0  0  0  0  0  0  0  0  0
    6.2286   -2.9287    0.0000 C   0  0  0  0  0  0  0  0  0  0  0  0
    7.9086   -1.4920    0.0000 C   0  0  0  0  0  0  0  0  0  0  0  0
    8.6588   -1.2191    0.0000 N   0  0  0  0  0  0  0  0  0  0  0  0
    9.2755   -1.8283    0.0000 C   0  0  0  0  0  0  0  0  0  0  0  0
   10.0972   -1.5358    0.0000 C   0  0  0  0  0  0  0  0  0  0  0  0
   10.2530   -0.7190    0.0000 O   0  0  0  0  0  0  0  0  0  0  0  0
    9.6330   -0.2077    0.0000 C   0  0  0  0  0  0  0  0  0  0  0  0
    8.8947   -0.4470    0.0000 C   0  0  0  0  0  0  0  0  0  0  0  0
  1  2  1  0  0  0  0
  3  4  1  0  0  0  0
  4  5  2  0  0  0  0
  4 15  1  0  0  0  0
  5  6  1  0  0  0  0
  6  7  2  0  0  0  0
  7  8  1  0  0  0  0
  8 11  2  0  0  0  0
  9  8  1  0  0  0  0
  9 10  1  0  0  0  0
 10 17  1  0  0  0  0
 11 12  1  0  0  0  0
 11  1  1  0  0  0  0
 13 10  1  0  0  0  0
 13 12  1  0  0  0  0
 14  7  1  0  0  0  0
 14  1  1  0  0  0  0
 15 14  2  0  0  0  0
 16 17  1  0  0  0  0
 16 18  2  0  0  0  0
 17 23  2  0  0  0  0
 18 20  1  0  0  0  0
 19 20  1  0  0  0  0
 20 21  2  0  0  0  0
 21 22  1  0  0  0  0
 22 24  2  0  0  0  0
 23 21  1  0  0  0  0
 24 19  1  0  0  0  0
 24 25  1  0  0  0  0
 26 27  1  0  0  0  0
 26 25  1  0  0  0  0
 28 27  1  0  0  0  0
 29 28  1  0  0  0  0
 29 30  1  0  0  0  0
 30 25  1  0  0  0  0
M  END
> <ID>
SCHEMBL21154190

> <InChIKey>
JDQJIKZHDOUXIV-UHFFFAOYSA-N

> <MW>
406.461

> <Series_Name>
Series_6

$$$$
SCHEMBL21154207
  Mrv1719007191912132D 0   0.00000     0.00000     0

 31 36  0  0  1  0              1 V2000 
    0.9797   -7.8093    0.0000 C   0  0  0  0  0  0  0  0  0  0  0  0
    0.2827   -8.2458    0.0000 F   0  0  0  0  0  0  0  0  0  0  0  0
    1.5825   -6.5300    0.0000 C   0  0  0  0  0  0  0  0  0  0  0  0
    0.9087   -7.0118    0.0000 C   0  0  0  0  0  0  0  0  0  0  0  0
    2.3138   -6.8862    0.0000 C   0  0  0  0  0  0  0  0  0  0  0  0
    3.0822   -6.5593    0.0000 C   0  0  0  0  0  0  0  0  0  0  0  0
    3.4057   -5.7790    0.0000 C   0  0  0  0  0  0  0  0  0  0  0  0
    4.1700   -5.5836    0.0000 N   0  0  0  0  0  0  0  0  0  0  0  0
    3.6323   -7.1741    0.0000 C   0  0  0  0  0  0  0  0  0  0  0  0
    4.4797   -6.9974    0.0000 C   0  0  0  0  0  0  0  0  0  0  0  0
    4.7514   -6.2681    0.0000 C   0  0  0  0  0  0  0  0  0  0  0  0
    3.4279   -7.8217    0.0000 N   0  0  0  0  0  0  0  0  0  0  0  0
    2.3890   -7.6730    0.0000 C   0  0  0  0  0  0  0  0  0  0  0  0
    1.7324   -8.1457    0.0000 C   0  0  0  0  0  0  0  0  0  0  0  0
    3.9081   -4.2525    0.0000 C   0  0  0  0  0  0  0  0  0  0  0  0
    4.4665   -4.8676    0.0000 C   0  0  0  0  0  0  0  0  0  0  0  0
    4.2036   -3.4603    0.0000 C   0  0  0  0  0  0  0  0  0  0  0  0
    5.0388   -3.3019    0.0000 C   0  0  0  0  0  0  0  0  0  0  0  0
    5.4422   -2.5680    0.0000 O   0  0  0  0  0  0  0  0  0  0  0  0
    5.5906   -3.9462    0.0000 C   0  0  0  0  0  0  0  0  0  0  0  0
    6.3375   -3.6046    0.0000 N   0  0  0  0  0  0  0  0  0  0  0  0
    5.2996   -4.7145    0.0000 C   0  0  0  0  0  0  0  0  0  0  0  0
    6.2929   -2.8235    0.0000 C   0  0  0  0  0  0  0  0  0  0  0  0
    6.9029   -2.2382    0.0000 N   0  0  0  0  0  0  0  0  0  0  0  0
    7.7028   -2.5515    0.0000 C   0  0  0  0  0  0  0  0  0  0  0  0
    8.1516   -1.1780    0.0000 O   0  0  0  0  0  0  0  0  0  0  0  0
    8.3401   -2.0173    0.0000 C   0  0  1  0  0  0  0  0  0  0  0  0
    9.0523   -2.2539    0.0000 C   0  0  0  0  0  0  0  0  0  0  0  0
    7.3931   -0.9593    0.0000 C   0  0  2  0  0  0  0  0  0  0  0  0
    7.2634   -0.2003    0.0000 C   0  0  0  0  0  0  0  0  0  0  0  0
    6.7755   -1.4910    0.0000 C   0  0  0  0  0  0  0  0  0  0  0  0
  1  2  1  0  0  0  0
  1 14  1  0  0  0  0
  3  4  1  0  0  0  0
  3  5  2  0  0  0  0
  4  1  2  0  0  0  0
  5  6  1  0  0  0  0
  5 13  1  0  0  0  0
  6  9  2  0  0  0  0
  7  6  1  0  0  0  0
  7  8  1  0  0  0  0
  8 11  1  0  0  0  0
  8 16  1  0  0  0  0
  9 10  1  0  0  0  0
  9 12  1  0  0  0  0
 10 11  1  0  0  0  0
 13 12  1  0  0  0  0
 14 13  2  0  0  0  0
 15 16  1  0  0  0  0
 15 17  2  0  0  0  0
 16 22  2  0  0  0  0
 17 18  1  0  0  0  0
 18 20  2  0  0  0  0
 19 18  1  0  0  0  0
 19 23  1  0  0  0  0
 21 20  1  0  0  0  0
 22 20  1  0  0  0  0
 23 21  2  0  0  0  0
 24 23  1  0  0  0  0
 24 25  1  0  0  0  0
 27 26  1  0  0  0  0
 27 28  1  1  0  0  0
 27 25  1  0  0  0  0
 29 30  1  1  0  0  0
 29 26  1  0  0  0  0
 29 31  1  0  0  0  0
 31 24  1  0  0  0  0
M  END
> <ID>
SCHEMBL21154207

> <InChIKey>
IUBFGGWEZNIFHK-GASCZTMLSA-N

> <MW>
420.488

> <Series_Name>
Series_6

$$$$
SCHEMBL21154208
  Mrv1719007191912132D 0   0.00000     0.00000     0

 29 34  0  0  0  0              1 V2000 
    1.7795   -3.1204    0.0000 N   0  0  0  0  0  0  0  0  0  0  0  0
    1.5777   -3.9219    0.0000 C   0  0  0  0  0  0  0  0  0  0  0  0
    2.5867   -2.8196    0.0000 C   0  0  0  0  0  0  0  0  0  0  0  0
    1.3176   -2.4556    0.0000 C   0  0  0  0  0  0  0  0  0  0  0  0
    0.1715   -1.6301    0.0000 C   0  0  0  0  0  0  0  0  0  0  0  0
    0.5029   -2.3856    0.0000 C   0  0  0  0  0  0  0  0  0  0  0  0
    1.7622   -1.7853    0.0000 C   0  0  0  0  0  0  0  0  0  0  0  0
    2.5712   -2.0110    0.0000 C   0  0  0  0  0  0  0  0  0  0  0  0
    3.2813   -1.5723    0.0000 C   0  0  0  0  0  0  0  0  0  0  0  0
    3.9715   -1.9599    0.0000 N   0  0  0  0  0  0  0  0  0  0  0  0
    3.3139   -3.2253    0.0000 C   0  0  0  0  0  0  0  0  0  0  0  0
    4.0199   -2.7926    0.0000 C   0  0  0  0  0  0  0  0  0  0  0  0
    1.4199   -1.0563    0.0000 C   0  0  0  0  0  0  0  0  0  0  0  0
    0.5983   -0.9721    0.0000 C   0  0  0  0  0  0  0  0  0  0  0  0
    4.7434   -1.5280    0.0000 C   0  0  0  0  0  0  0  0  0  0  0  0
    4.7520   -0.6872    0.0000 C   0  0  0  0  0  0  0  0  0  0  0  0
    6.9630   -0.3868    0.0000 O   0  0  0  0  0  0  0  0  0  0  0  0
    6.1966   -0.6887    0.0000 C   0  0  0  0  0  0  0  0  0  0  0  0
    6.2162   -1.5005    0.0000 C   0  0  0  0  0  0  0  0  0  0  0  0
    6.9888   -1.7278    0.0000 N   0  0  0  0  0  0  0  0  0  0  0  0
    5.5009   -1.9458    0.0000 C   0  0  0  0  0  0  0  0  0  0  0  0
    5.4583   -0.3024    0.0000 C   0  0  0  0  0  0  0  0  0  0  0  0
    9.9545   -0.9800    0.0000 O   0  0  0  0  0  0  0  0  0  0  0  0
    9.5709   -1.7349    0.0000 C   0  0  0  0  0  0  0  0  0  0  0  0
    8.8069   -1.7617    0.0000 C   0  0  0  0  0  0  0  0  0  0  0  0
    8.2783   -1.0316    0.0000 N   0  0  0  0  0  0  0  0  0  0  0  0
    7.4886   -1.0588    0.0000 C   0  0  0  0  0  0  0  0  0  0  0  0
    8.7305   -0.3195    0.0000 C   0  0  0  0  0  0  0  0  0  0  0  0
    9.5379   -0.2919    0.0000 C   0  0  0  0  0  0  0  0  0  0  0  0
  1  2  1  0  0  0  0
  3  1  1  0  0  0  0
  3 11  1  0  0  0  0
  4  1  1  0  0  0  0
  4  7  1  0  0  0  0
  5  6  1  0  0  0  0
  5 14  2  0  0  0  0
  6  4  2  0  0  0  0
  7  8  1  0  0  0  0
  8  3  2  0  0  0  0
  9  8  1  0  0  0  0
  9 10  1  0  0  0  0
 10 15  1  0  0  0  0
 11 12  1  0  0  0  0
 12 10  1  0  0  0  0
 13  7  2  0  0  0  0
 14 13  1  0  0  0  0
 15 16  1  0  0  0  0
 15 21  2  0  0  0  0
 16 22  2  0  0  0  0
 17 18  1  0  0  0  0
 18 19  2  0  0  0  0
 19 20  1  0  0  0  0
 20 27  2  0  0  0  0
 21 19  1  0  0  0  0
 22 18  1  0  0  0  0
 23 24  1  0  0  0  0
 24 25  1  0  0  0  0
 25 26  1  0  0  0  0
 27 17  1  0  0  0  0
 27 26  1  0  0  0  0
 28 29  1  0  0  0  0
 28 26  1  0  0  0  0
 29 23  1  0  0  0  0
M  END
> <ID>
SCHEMBL21154208

> <InChIKey>
IUEQSQQKMFFJNH-UHFFFAOYSA-N

> <MW>
388.471

> <Series_Name>
Series_6

$$$$
SCHEMBL21154259
  Mrv1719007191912182D 0   0.00000     0.00000     0

 29 34  0  0  0  0              1 V2000 
    8.3849   -2.6900    0.0000 N   0  0  0  0  0  0  0  0  0  0  0  0
    8.6902   -3.5394    0.0000 C   0  0  0  0  0  0  0  0  0  0  0  0
    9.4422   -3.7345    0.0000 C   0  0  0  0  0  0  0  0  0  0  0  0
    9.9875   -3.1193    0.0000 O   0  0  0  0  0  0  0  0  0  0  0  0
    1.1876   -3.1050    0.0000 N   0  0  0  0  0  0  0  0  0  0  0  0
    2.3514   -3.0527    0.0000 C   0  0  0  0  0  0  0  0  0  0  0  0
    2.5067   -2.2641    0.0000 C   0  0  0  0  0  0  0  0  0  0  0  0
    1.7995   -1.8503    0.0000 C   0  0  0  0  0  0  0  0  0  0  0  0
    1.1854   -2.4012    0.0000 C   0  0  0  0  0  0  0  0  0  0  0  0
    0.3801   -2.1283    0.0000 C   0  0  0  0  0  0  0  0  0  0  0  0
    0.2097   -1.2967    0.0000 C   0  0  0  0  0  0  0  0  0  0  0  0
    0.7967   -0.7798    0.0000 C   0  0  0  0  0  0  0  0  0  0  0  0
    1.6377   -1.0202    0.0000 C   0  0  0  0  0  0  0  0  0  0  0  0
    2.2321   -0.4292    0.0000 F   0  0  0  0  0  0  0  0  0  0  0  0
    3.3226   -1.9903    0.0000 C   0  0  0  0  0  0  0  0  0  0  0  0
    3.9206   -2.5183    0.0000 N   0  0  0  0  0  0  0  0  0  0  0  0
    3.0036   -3.6282    0.0000 C   0  0  0  0  0  0  0  0  0  0  0  0
    3.7503   -3.3782    0.0000 C   0  0  0  0  0  0  0  0  0  0  0  0
    4.7801   -2.2700    0.0000 C   0  0  0  0  0  0  0  0  0  0  0  0
    5.7493   -1.2441    0.0000 C   0  0  0  0  0  0  0  0  0  0  0  0
    6.3761   -1.7944    0.0000 C   0  0  0  0  0  0  0  0  0  0  0  0
    7.2688   -1.7457    0.0000 O   0  0  0  0  0  0  0  0  0  0  0  0
    6.1987   -2.5959    0.0000 C   0  0  0  0  0  0  0  0  0  0  0  0
    6.8968   -2.9762    0.0000 N   0  0  0  0  0  0  0  0  0  0  0  0
    5.3658   -2.8507    0.0000 C   0  0  0  0  0  0  0  0  0  0  0  0
    4.9666   -1.5100    0.0000 C   0  0  0  0  0  0  0  0  0  0  0  0
    7.5906   -2.5430    0.0000 C   0  0  0  0  0  0  0  0  0  0  0  0
    8.9973   -2.1537    0.0000 C   0  0  0  0  0  0  0  0  0  0  0  0
    9.7940   -2.3422    0.0000 C   0  0  0  0  0  0  0  0  0  0  0  0
  1  2  1  0  0  0  0
  1 28  1  0  0  0  0
  2  3  1  0  0  0  0
  4  3  1  0  0  0  0
  4 29  1  0  0  0  0
  5  6  1  0  0  0  0
  6  7  2  0  0  0  0
  7  8  1  0  0  0  0
  7 15  1  0  0  0  0
  8  9  1  0  0  0  0
  9  5  1  0  0  0  0
 10  9  2  0  0  0  0
 10 11  1  0  0  0  0
 11 12  2  0  0  0  0
 12 13  1  0  0  0  0
 13  8  2  0  0  0  0
 14 13  1  0  0  0  0
 15 16  1  0  0  0  0
 16 19  1  0  0  0  0
 17 18  1  0  0  0  0
 17  6  1  0  0  0  0
 18 16  1  0  0  0  0
 19 25  2  0  0  0  0
 19 26  1  0  0  0  0
 20 21  1  0  0  0  0
 21 22  1  0  0  0  0
 23 24  1  0  0  0  0
 23 21  2  0  0  0  0
 24 27  2  0  0  0  0
 25 23  1  0  0  0  0
 26 20  2  0  0  0  0
 27 22  1  0  0  0  0
 27  1  1  0  0  0  0
 28 29  1  0  0  0  0
M  END
> <ID>
SCHEMBL21154259

> <InChIKey>
IPOBDPADAGIYJO-UHFFFAOYSA-N

> <MW>
392.434

> <Series_Name>
Series_6

$$$$
SCHEMBL21154457
  Mrv1719007191913422D 0   0.00000     0.00000     0

 30 35  0  0  0  0              1 V2000 
    2.0334   -2.8937    0.0000 N   0  0  0  0  0  0  0  0  0  0  0  0
    2.8486   -2.6810    0.0000 C   0  0  0  0  0  0  0  0  0  0  0  0
    2.0863   -1.5333    0.0000 C   0  0  0  0  0  0  0  0  0  0  0  0
    2.8776   -1.8396    0.0000 C   0  0  0  0  0  0  0  0  0  0  0  0
    1.6254   -2.2106    0.0000 C   0  0  0  0  0  0  0  0  0  0  0  0
    0.5738   -2.4209    0.0000 C   0  0  0  0  0  0  0  0  0  0  0  0
    0.8494   -2.0925    0.0000 C   0  0  0  0  0  0  0  0  0  0  0  0
    0.4995   -1.2989    0.0000 C   0  0  0  0  0  0  0  0  0  0  0  0
    1.0258   -0.6636    0.0000 C   0  0  0  0  0  0  0  0  0  0  0  0
    3.6107   -1.4415    0.0000 C   0  0  0  0  0  0  0  0  0  0  0  0
    4.2233   -1.8249    0.0000 N   0  0  0  0  0  0  0  0  0  0  0  0
    3.5177   -3.1237    0.0000 C   0  0  0  0  0  0  0  0  0  0  0  0
    4.2459   -2.6936    0.0000 C   0  0  0  0  0  0  0  0  0  0  0  0
    1.7947   -0.7796    0.0000 C   0  0  0  0  0  0  0  0  0  0  0  0
    8.4205   -1.1471    0.0000 N   0  0  0  0  0  0  0  0  0  0  0  0
    8.8298   -1.8998    0.0000 C   0  0  0  0  0  0  0  0  0  0  0  0
    9.6344   -1.9136    0.0000 C   0  0  0  0  0  0  0  0  0  0  0  0
   10.0368   -1.2774    0.0000 O   0  0  0  0  0  0  0  0  0  0  0  0
    4.9869   -1.4560    0.0000 C   0  0  0  0  0  0  0  0  0  0  0  0
    5.0257   -0.6081    0.0000 C   0  0  0  0  0  0  0  0  0  0  0  0
    5.7042   -0.2076    0.0000 C   0  0  0  0  0  0  0  0  0  0  0  0
    6.4002   -0.6509    0.0000 C   0  0  0  0  0  0  0  0  0  0  0  0
    7.1692   -0.3910    0.0000 O   0  0  0  0  0  0  0  0  0  0  0  0
    6.3905   -1.4982    0.0000 C   0  0  0  0  0  0  0  0  0  0  0  0
    7.0909   -1.7466    0.0000 N   0  0  0  0  0  0  0  0  0  0  0  0
    5.6420   -1.9098    0.0000 C   0  0  0  0  0  0  0  0  0  0  0  0
    7.6192   -1.1126    0.0000 C   0  0  0  0  0  0  0  0  0  0  0  0
    8.9257   -0.4540    0.0000 C   0  0  0  0  0  0  0  0  0  0  0  0
    9.7177   -0.5407    0.0000 C   0  0  0  0  0  0  0  0  0  0  0  0
    1.7727   -3.6874    0.0000 C   0  0  0  0  0  0  0  0  0  0  0  0
  1  2  1  0  0  0  0
  1 30  1  0  0  0  0
  2  4  2  0  0  0  0
  3  4  1  0  0  0  0
  4 10  1  0  0  0  0
  5  3  1  0  0  0  0
  5  1  1  0  0  0  0
  6  7  1  0  0  0  0
  7  5  2  0  0  0  0
  8  7  1  0  0  0  0
  8  9  2  0  0  0  0
  9 14  1  0  0  0  0
 10 11  1  0  0  0  0
 11 13  1  0  0  0  0
 11 19  1  0  0  0  0
 12 13  1  0  0  0  0
 12  2  1  0  0  0  0
 14  3  2  0  0  0  0
 15 16  1  0  0  0  0
 15 28  1  0  0  0  0
 16 17  1  0  0  0  0
 18 17  1  0  0  0  0
 18 29  1  0  0  0  0
 19 26  2  0  0  0  0
 20 21  2  0  0  0  0
 20 19  1  0  0  0  0
 22 21  1  0  0  0  0
 22 23  1  0  0  0  0
 24 25  1  0  0  0  0
 24 22  2  0  0  0  0
 25 27  2  0  0  0  0
 26 24  1  0  0  0  0
 27 23  1  0  0  0  0
 27 15  1  0  0  0  0
 28 29  1  0  0  0  0
M  END
> <ID>
SCHEMBL21154457

> <InChIKey>
LHVUFRFLMJJEGE-UHFFFAOYSA-N

> <MW>
402.498

> <Series_Name>
Series_6

$$$$
SCHEMBL21154550
  Mrv1719007191913472D 0   0.00000     0.00000     0

 30 35  0  0  1  0              1 V2000 
    9.1843   -2.0115    0.0000 N   0  0  0  0  0  0  0  0  0  0  0  0
    9.4942   -2.8248    0.0000 C   0  0  0  0  0  0  0  0  0  0  0  0
   10.3122   -3.0007    0.0000 C   0  0  0  0  0  0  0  0  0  0  0  0
   10.8518   -2.3821    0.0000 O   0  0  0  0  0  0  0  0  0  0  0  0
    2.1307   -2.5409    0.0000 N   0  0  0  0  0  0  0  0  0  0  0  0
    3.2733   -2.4534    0.0000 C   0  0  0  0  0  0  0  0  0  0  0  0
    3.4468   -1.6397    0.0000 C   0  0  0  0  0  0  0  0  0  0  0  0
    2.7098   -1.2251    0.0000 C   0  0  0  0  0  0  0  0  0  0  0  0
    2.0819   -1.7514    0.0000 C   0  0  0  0  0  0  0  0  0  0  0  0
    1.1311   -0.7154    0.0000 C   0  0  0  0  0  0  0  0  0  0  0  0
    1.3093   -1.5424    0.0000 C   0  0  0  0  0  0  0  0  0  0  0  0
    0.2912   -0.4500    0.0000 F   0  0  0  0  0  0  0  0  0  0  0  0
    1.7067   -0.1677    0.0000 C   0  0  0  0  0  0  0  0  0  0  0  0
    2.5455   -0.4178    0.0000 C   0  0  0  0  0  0  0  0  0  0  0  0
    4.2185   -1.3849    0.0000 C   0  0  0  0  0  0  0  0  0  0  0  0
    4.8171   -1.9321    0.0000 N   0  0  0  0  0  0  0  0  0  0  0  0
    3.9025   -2.9791    0.0000 C   0  0  0  0  0  0  0  0  0  0  0  0
    4.6631   -2.7512    0.0000 C   0  0  0  0  0  0  0  0  0  0  0  0
    5.6594   -1.6699    0.0000 C   0  0  0  0  0  0  0  0  0  0  0  0
    5.8481   -0.8816    0.0000 C   0  0  0  0  0  0  0  0  0  0  0  0
    6.6134   -0.6225    0.0000 C   0  0  0  0  0  0  0  0  0  0  0  0
    7.2541   -1.1746    0.0000 C   0  0  0  0  0  0  0  0  0  0  0  0
    8.0726   -1.0852    0.0000 O   0  0  0  0  0  0  0  0  0  0  0  0
    7.0879   -1.9826    0.0000 C   0  0  0  0  0  0  0  0  0  0  0  0
    7.7815   -2.3821    0.0000 N   0  0  0  0  0  0  0  0  0  0  0  0
    6.2754   -2.2364    0.0000 C   0  0  0  0  0  0  0  0  0  0  0  0
    8.4540   -1.8288    0.0000 C   0  0  0  0  0  0  0  0  0  0  0  0
    9.7613   -1.4218    0.0000 C   0  0  1  0  0  0  0  0  0  0  0  0
   10.6234   -1.5906    0.0000 C   0  0  0  0  0  0  0  0  0  0  0  0
    9.4765   -0.4786    0.0000 C   0  0  0  0  0  0  0  0  0  0  0  0
  1  2  1  0  0  0  0
 28  1  1  0  0  0  0
  2  3  1  0  0  0  0
  4  3  1  0  0  0  0
  5  6  1  0  0  0  0
  6  7  2  0  0  0  0
  7  8  1  0  0  0  0
  7 15  1  0  0  0  0
  9  5  1  0  0  0  0
  9  8  1  0  0  0  0
 10 11  1  0  0  0  0
 10 13  2  0  0  0  0
 11  9  2  0  0  0  0
 12 10  1  0  0  0  0
 13 14  1  0  0  0  0
 14  8  2  0  0  0  0
 15 16  1  0  0  0  0
 16 19  1  0  0  0  0
 17  6  1  0  0  0  0
 18 16  1  0  0  0  0
 18 17  1  0  0  0  0
 19 26  2  0  0  0  0
 20 21  2  0  0  0  0
 20 19  1  0  0  0  0
 22 21  1  0  0  0  0
 22 23  1  0  0  0  0
 24 25  1  0  0  0  0
 24 22  2  0  0  0  0
 25 27  2  0  0  0  0
 26 24  1  0  0  0  0
 27 23  1  0  0  0  0
 27  1  1  0  0  0  0
 28 30  1  6  0  0  0
 28 29  1  0  0  0  0
 29  4  1  0  0  0  0
M  END
> <ID>
SCHEMBL21154550

> <InChIKey>
IVSGXFRSZPASAJ-CQSZACIVSA-N

> <MW>
406.461

> <Series_Name>
Series_6

$$$$
SCHEMBL21154554
  Mrv1719007191913472D 0   0.00000     0.00000     0

 30 35  0  0  0  0              1 V2000 
    2.3807   -2.5253    0.0000 N   0  0  0  0  0  0  0  0  0  0  0  0
    3.4660   -2.4439    0.0000 C   0  0  0  0  0  0  0  0  0  0  0  0
    3.6460   -1.6327    0.0000 C   0  0  0  0  0  0  0  0  0  0  0  0
    2.9415   -1.2184    0.0000 C   0  0  0  0  0  0  0  0  0  0  0  0
    2.3388   -1.7817    0.0000 C   0  0  0  0  0  0  0  0  0  0  0  0
    1.5415   -1.5280    0.0000 C   0  0  0  0  0  0  0  0  0  0  0  0
    0.8681   -2.0518    0.0000 O   0  0  0  0  0  0  0  0  0  0  0  0
    1.3813   -0.6971    0.0000 C   0  0  0  0  0  0  0  0  0  0  0  0
    2.0075   -0.1628    0.0000 C   0  0  0  0  0  0  0  0  0  0  0  0
    2.7681   -0.4205    0.0000 C   0  0  0  0  0  0  0  0  0  0  0  0
    4.3999   -1.3737    0.0000 C   0  0  0  0  0  0  0  0  0  0  0  0
    5.0244   -1.9203    0.0000 N   0  0  0  0  0  0  0  0  0  0  0  0
    4.8738   -2.7416    0.0000 C   0  0  0  0  0  0  0  0  0  0  0  0
    4.0816   -2.9969    0.0000 C   0  0  0  0  0  0  0  0  0  0  0  0
    9.3385   -1.9992    0.0000 N   0  0  0  0  0  0  0  0  0  0  0  0
    9.6343   -2.7966    0.0000 C   0  0  0  0  0  0  0  0  0  0  0  0
   10.9432   -2.3412    0.0000 O   0  0  0  0  0  0  0  0  0  0  0  0
   10.4324   -2.9661    0.0000 C   0  0  0  0  0  0  0  0  0  0  0  0
    5.8373   -1.6793    0.0000 C   0  0  0  0  0  0  0  0  0  0  0  0
    6.0161   -0.8800    0.0000 C   0  0  0  0  0  0  0  0  0  0  0  0
    6.7962   -0.6124    0.0000 C   0  0  0  0  0  0  0  0  0  0  0  0
    7.4375   -1.1663    0.0000 C   0  0  0  0  0  0  0  0  0  0  0  0
    8.2337   -1.0785    0.0000 O   0  0  0  0  0  0  0  0  0  0  0  0
    7.2697   -1.9752    0.0000 C   0  0  0  0  0  0  0  0  0  0  0  0
    7.9443   -2.3938    0.0000 N   0  0  0  0  0  0  0  0  0  0  0  0
    6.4507   -2.2257    0.0000 C   0  0  0  0  0  0  0  0  0  0  0  0
    8.4958   -1.8229    0.0000 C   0  0  0  0  0  0  0  0  0  0  0  0
    9.9126   -1.3968    0.0000 C   0  0  0  0  0  0  0  0  0  0  0  0
   10.7328   -1.5696    0.0000 C   0  0  0  0  0  0  0  0  0  0  0  0
    0.0942   -1.7978    0.0000 C   0  0  0  0  0  0  0  0  0  0  0  0
  1  2  1  0  0  0  0
  2  3  2  0  0  0  0
  3  4  1  0  0  0  0
  3 11  1  0  0  0  0
  4  5  1  0  0  0  0
  5  1  1  0  0  0  0
  6  5  2  0  0  0  0
  6  8  1  0  0  0  0
  7  6  1  0  0  0  0
  8  9  2  0  0  0  0
  9 10  1  0  0  0  0
 10  4  2  0  0  0  0
 11 12  1  0  0  0  0
 12 13  1  0  0  0  0
 12 19  1  0  0  0  0
 13 14  1  0  0  0  0
 14  2  1  0  0  0  0
 15 16  1  0  0  0  0
 15 28  1  0  0  0  0
 17 18  1  0  0  0  0
 18 16  1  0  0  0  0
 19 26  2  0  0  0  0
 20 21  2  0  0  0  0
 20 19  1  0  0  0  0
 22 21  1  0  0  0  0
 22 23  1  0  0  0  0
 24 25  1  0  0  0  0
 24 22  2  0  0  0  0
 25 27  2  0  0  0  0
 26 24  1  0  0  0  0
 27 23  1  0  0  0  0
 27 15  1  0  0  0  0
 28 29  1  0  0  0  0
 29 17  1  0  0  0  0
 30  7  1  0  0  0  0
M  END
> <ID>
SCHEMBL21154554

> <InChIKey>
WVNFUXQAGJUCCP-UHFFFAOYSA-N

> <MW>
404.47

> <Series_Name>
Series_6

$$$$
SCHEMBL21154601
  Mrv1719007191914112D 0   0.00000     0.00000     0

 32 38  0  0  0  0              1 V2000 
    9.1385   -2.0536    0.0000 N   0  0  0  0  0  0  0  0  0  0  0  0
    9.4495   -2.8587    0.0000 C   0  0  0  0  0  0  0  0  0  0  0  0
   10.2414   -3.0750    0.0000 C   0  0  0  0  0  0  0  0  0  0  0  0
   10.7557   -2.4386    0.0000 O   0  0  0  0  0  0  0  0  0  0  0  0
   10.9313   -3.4399    0.0000 C   0  0  0  0  0  0  0  0  0  0  0  0
   10.5715   -4.1650    0.0000 C   0  0  0  0  0  0  0  0  0  0  0  0
    9.9119   -3.8157    0.0000 C   0  0  0  0  0  0  0  0  0  0  0  0
    2.1050   -2.5798    0.0000 N   0  0  0  0  0  0  0  0  0  0  0  0
    3.2414   -2.5090    0.0000 C   0  0  0  0  0  0  0  0  0  0  0  0
    3.4083   -1.6776    0.0000 C   0  0  0  0  0  0  0  0  0  0  0  0
    2.6960   -1.2532    0.0000 C   0  0  0  0  0  0  0  0  0  0  0  0
    2.0634   -1.8071    0.0000 C   0  0  0  0  0  0  0  0  0  0  0  0
    1.2803   -1.5743    0.0000 C   0  0  0  0  0  0  0  0  0  0  0  0
    0.3081   -0.4621    0.0000 F   0  0  0  0  0  0  0  0  0  0  0  0
    1.1030   -0.7319    0.0000 C   0  0  0  0  0  0  0  0  0  0  0  0
    1.7174   -0.1725    0.0000 C   0  0  0  0  0  0  0  0  0  0  0  0
    2.4930   -0.4288    0.0000 C   0  0  0  0  0  0  0  0  0  0  0  0
    4.1714   -1.4243    0.0000 C   0  0  0  0  0  0  0  0  0  0  0  0
    4.7746   -1.9766    0.0000 N   0  0  0  0  0  0  0  0  0  0  0  0
    3.8591   -3.0705    0.0000 C   0  0  0  0  0  0  0  0  0  0  0  0
    4.6004   -2.8075    0.0000 C   0  0  0  0  0  0  0  0  0  0  0  0
    5.6062   -1.6946    0.0000 C   0  0  0  0  0  0  0  0  0  0  0  0
    5.7748   -0.8983    0.0000 C   0  0  0  0  0  0  0  0  0  0  0  0
    6.5894   -0.6493    0.0000 C   0  0  0  0  0  0  0  0  0  0  0  0
    7.1915   -1.2233    0.0000 C   0  0  0  0  0  0  0  0  0  0  0  0
    7.9833   -1.1038    0.0000 O   0  0  0  0  0  0  0  0  0  0  0  0
    6.9814   -2.0498    0.0000 C   0  0  0  0  0  0  0  0  0  0  0  0
    7.7267   -2.4386    0.0000 N   0  0  0  0  0  0  0  0  0  0  0  0
    6.1966   -2.2774    0.0000 C   0  0  0  0  0  0  0  0  0  0  0  0
    8.3728   -1.8990    0.0000 C   0  0  0  0  0  0  0  0  0  0  0  0
    9.7198   -1.4635    0.0000 C   0  0  0  0  0  0  0  0  0  0  0  0
   10.5143   -1.6497    0.0000 C   0  0  0  0  0  0  0  0  0  0  0  0
  1  2  1  0  0  0  0
  1 31  1  0  0  0  0
  2  3  1  0  0  0  0
  3  4  1  0  0  0  0
  3  7  1  0  0  0  0
  4 32  1  0  0  0  0
  5  6  1  0  0  0  0
  5  3  1  0  0  0  0
  7  6  1  0  0  0  0
  8  9  1  0  0  0  0
  9 10  2  0  0  0  0
 10 11  1  0  0  0  0
 10 18  1  0  0  0  0
 11 12  1  0  0  0  0
 12  8  1  0  0  0  0
 13 12  2  0  0  0  0
 13 15  1  0  0  0  0
 14 15  1  0  0  0  0
 15 16  2  0  0  0  0
 16 17  1  0  0  0  0
 17 11  2  0  0  0  0
 18 19  1  0  0  0  0
 19 22  1  0  0  0  0
 20 21  1  0  0  0  0
 20  9  1  0  0  0  0
 21 19  1  0  0  0  0
 22 29  2  0  0  0  0
 23 24  2  0  0  0  0
 23 22  1  0  0  0  0
 25 26  1  0  0  0  0
 25 24  1  0  0  0  0
 27 25  2  0  0  0  0
 27 28  1  0  0  0  0
 28 30  2  0  0  0  0
 29 27  1  0  0  0  0
 30 26  1  0  0  0  0
 30  1  1  0  0  0  0
 31 32  1  0  0  0  0
M  END
> <ID>
SCHEMBL21154601

> <InChIKey>
CQCFFKHUEGKKBD-UHFFFAOYSA-N

> <MW>
432.499

> <Series_Name>
Series_6

$$$$
SCHEMBL21154649
  Mrv1719007191914202D 0   0.00000     0.00000     0

 30 35  0  0  0  0              1 V2000 
    2.0471   -2.8869    0.0000 N   0  0  0  0  0  0  0  0  0  0  0  0
    2.8738   -2.6468    0.0000 C   0  0  0  0  0  0  0  0  0  0  0  0
    2.8746   -1.8051    0.0000 C   0  0  0  0  0  0  0  0  0  0  0  0
    2.1142   -1.5114    0.0000 C   0  0  0  0  0  0  0  0  0  0  0  0
    1.6252   -2.1876    0.0000 C   0  0  0  0  0  0  0  0  0  0  0  0
    0.7960   -2.0844    0.0000 C   0  0  0  0  0  0  0  0  0  0  0  0
    0.2887   -2.7294    0.0000 F   0  0  0  0  0  0  0  0  0  0  0  0
    0.5160   -1.2972    0.0000 C   0  0  0  0  0  0  0  0  0  0  0  0
    0.9872   -0.6200    0.0000 C   0  0  0  0  0  0  0  0  0  0  0  0
    1.8385   -0.7125    0.0000 C   0  0  0  0  0  0  0  0  0  0  0  0
    3.6123   -1.3933    0.0000 C   0  0  0  0  0  0  0  0  0  0  0  0
    4.2779   -1.8109    0.0000 N   0  0  0  0  0  0  0  0  0  0  0  0
    3.5370   -3.0864    0.0000 C   0  0  0  0  0  0  0  0  0  0  0  0
    4.2517   -2.7059    0.0000 C   0  0  0  0  0  0  0  0  0  0  0  0
    5.0455   -1.4401    0.0000 C   0  0  0  0  0  0  0  0  0  0  0  0
    5.0842   -0.5770    0.0000 C   0  0  0  0  0  0  0  0  0  0  0  0
    5.7770   -0.2017    0.0000 C   0  0  0  0  0  0  0  0  0  0  0  0
    6.4567   -0.6215    0.0000 C   0  0  0  0  0  0  0  0  0  0  0  0
    7.2173   -0.3937    0.0000 O   0  0  0  0  0  0  0  0  0  0  0  0
    6.4109   -1.4549    0.0000 C   0  0  0  0  0  0  0  0  0  0  0  0
    7.1910   -1.7584    0.0000 N   0  0  0  0  0  0  0  0  0  0  0  0
    5.7233   -1.8734    0.0000 C   0  0  0  0  0  0  0  0  0  0  0  0
   10.0517   -1.2335    0.0000 O   0  0  0  0  0  0  0  0  0  0  0  0
    9.6542   -1.8831    0.0000 C   0  0  0  0  0  0  0  0  0  0  0  0
    8.8811   -1.8823    0.0000 C   0  0  0  0  0  0  0  0  0  0  0  0
    8.4771   -1.1023    0.0000 N   0  0  0  0  0  0  0  0  0  0  0  0
    7.6695   -1.1105    0.0000 C   0  0  0  0  0  0  0  0  0  0  0  0
    9.7325   -0.4987    0.0000 C   0  0  0  0  0  0  0  0  0  0  0  0
    8.9510   -0.4232    0.0000 C   0  0  0  0  0  0  0  0  0  0  0  0
    1.8432   -3.6611    0.0000 C   0  0  0  0  0  0  0  0  0  0  0  0
  1  2  1  0  0  0  0
  1 30  1  0  0  0  0
  2  3  2  0  0  0  0
  3  4  1  0  0  0  0
  3 11  1  0  0  0  0
  4  5  1  0  0  0  0
  5  1  1  0  0  0  0
  6  5  2  0  0  0  0
  6  8  1  0  0  0  0
  7  6  1  0  0  0  0
  8  9  2  0  0  0  0
  9 10  1  0  0  0  0
 10  4  2  0  0  0  0
 11 12  1  0  0  0  0
 12 15  1  0  0  0  0
 13 14  1  0  0  0  0
 13  2  1  0  0  0  0
 14 12  1  0  0  0  0
 15 22  2  0  0  0  0
 16 17  2  0  0  0  0
 16 15  1  0  0  0  0
 18 17  1  0  0  0  0
 18 19  1  0  0  0  0
 20 21  1  0  0  0  0
 20 18  2  0  0  0  0
 21 27  2  0  0  0  0
 22 20  1  0  0  0  0
 23 24  1  0  0  0  0
 24 25  1  0  0  0  0
 25 26  1  0  0  0  0
 26 29  1  0  0  0  0
 27 19  1  0  0  0  0
 27 26  1  0  0  0  0
 28 29  1  0  0  0  0
 28 23  1  0  0  0  0
M  END
> <ID>
SCHEMBL21154649

> <InChIKey>
GJFSNWNLXKQSLB-UHFFFAOYSA-N

> <MW>
406.461

> <Series_Name>
Series_6

$$$$
SCHEMBL21154681
  Mrv1719007191914382D 0   0.00000     0.00000     0

 42 44  0  0  0  0              1 V2000 
   20.4662    6.9700    0.0000 O   0  0  0  0  0  0  0  0  0  0  0  0
   22.3344    6.9700    0.0000 O   0  0  0  0  0  0  0  0  0  0  0  0
   15.2766    5.9001    0.0000 C   0  0  0  0  0  0  0  0  0  0  0  0
   15.9390    4.3129    0.0000 O   0  0  0  0  0  0  0  0  0  0  0  0
   26.6357    4.3090    0.0000 O   0  0  0  0  0  0  0  0  0  0  0  0
   23.6374    0.4618    0.0000 O   0  0  0  0  0  0  0  0  0  0  0  0
   25.0393    1.2914    0.0000 O   0  0  0  0  0  0  0  0  0  0  0  0
   20.5433    5.9880    0.0000 C   0  0  0  0  0  0  0  0  0  0  0  0
   22.1347    6.0145    0.0000 C   0  0  0  0  0  0  0  0  0  0  0  0
   19.6278    5.5408    0.0000 C   0  0  0  0  0  0  0  0  0  0  0  0
   18.8135    6.0039    0.0000 C   0  0  0  0  0  0  0  0  0  0  0  0
   17.9671    5.5302    0.0000 C   0  0  0  0  0  0  0  0  0  0  0  0
   21.3204    5.5302    0.0000 C   0  0  0  0  0  0  0  0  0  0  0  0
   24.6097    5.5302    0.0000 C   0  0  0  0  0  0  0  0  0  0  0  0
   23.8114    6.0039    0.0000 C   0  0  0  0  0  0  0  0  0  0  0  0
   22.9172    5.5408    0.0000 C   0  0  0  0  0  0  0  0  0  0  0  0
   17.3284    5.9081    0.0000 C   0  0  0  0  0  0  0  0  0  0  0  0
   16.6419    5.5302    0.0000 C   0  0  0  0  0  0  0  0  0  0  0  0
   25.9352    5.5142    0.0000 C   0  0  0  0  0  0  0  0  0  0  0  0
   25.2965    5.9081    0.0000 C   0  0  0  0  0  0  0  0  0  0  0  0
   16.6419    4.7052    0.0000 C   0  0  0  0  0  0  0  0  0  0  0  0
   17.9671    4.7106    0.0000 C   0  0  0  0  0  0  0  0  0  0  0  0
   17.2806    4.3113    0.0000 C   0  0  0  0  0  0  0  0  0  0  0  0
   24.6097    4.7106    0.0000 C   0  0  0  0  0  0  0  0  0  0  0  0
   25.2804    4.3113    0.0000 C   0  0  0  0  0  0  0  0  0  0  0  0
   25.9352    4.7052    0.0000 C   0  0  0  0  0  0  0  0  0  0  0  0
   22.1347    4.0080    0.0000 C   0  0  0  0  0  0  0  0  0  0  0  0
   22.1347    3.0179    0.0000 C   0  0  0  0  0  0  0  0  0  0  0  0
   22.9491    2.5282    0.0000 C   0  0  0  0  0  0  0  0  0  0  0  0
   24.3383    1.6873    0.0000 C   0  0  0  0  0  0  0  0  0  0  0  0
   24.3383    2.5229    0.0000 C   0  0  0  0  0  0  0  0  0  0  0  0
   23.6037    2.9221    0.0000 C   0  0  0  0  0  0  0  0  0  0  0  0
   22.9491    1.6926    0.0000 C   0  0  0  0  0  0  0  0  0  0  0  0
   23.6410    1.2668    0.0000 C   0  0  0  0  0  0  0  0  0  0  0  0
   21.3258    4.5402    0.0000 C   0  0  0  0  0  0  0  0  0  0  0  0
   20.4662    3.9680    0.0000 O   0  0  0  0  0  0  0  0  0  0  0  0
   26.6380    5.9066    0.0000 O   0  0  0  0  0  0  0  0  0  0  0  0
   25.7401    0.8957    0.0000 C   0  0  0  0  0  0  0  0  0  0  0  0
   27.3408    6.2989    0.0000 C   0  0  0  0  0  0  0  0  0  0  0  0
   23.6338   -0.3431    0.0000 C   0  0  0  0  0  0  0  0  0  0  0  0
   15.2361    3.9206    0.0000 C   0  0  0  0  0  0  0  0  0  0  0  0
   27.3364    3.9127    0.0000 C   0  0  0  0  0  0  0  0  0  0  0  0
  1  8  2  0  0  0  0
  2  9  1  0  0  0  0
  8 10  1  0  0  0  0
 10 11  2  0  0  0  0
 11 12  1  0  0  0  0
  9 13  2  0  0  0  0
  8 13  1  0  0  0  0
 14 15  1  0  0  0  0
 15 16  2  0  0  0  0
  9 16  1  0  0  0  0
 12 17  2  0  0  0  0
 17 18  1  0  0  0  0
  3 18  1  0  0  0  0
 19 20  2  0  0  0  0
 14 20  1  0  0  0  0
 18 21  2  0  0  0  0
 12 22  1  0  0  0  0
 22 23  2  0  0  0  0
 21 23  1  0  0  0  0
 14 24  2  0  0  0  0
 24 25  1  0  0  0  0
 25 26  2  0  0  0  0
 19 26  1  0  0  0  0
 27 28  2  0  0  0  0
 28 29  1  0  0  0  0
 30 31  1  0  0  0  0
 31 32  2  0  0  0  0
 29 32  1  0  0  0  0
 29 33  2  0  0  0  0
 33 34  1  0  0  0  0
 30 34  2  0  0  0  0
 13 35  1  0  0  0  0
 27 35  1  0  0  0  0
 35 36  2  0  0  0  0
 19 37  1  0  0  0  0
 21  4  1  0  0  0  0
 26  5  1  0  0  0  0
 34  6  1  0  0  0  0
 30  7  1  0  0  0  0
 37 39  1  0  0  0  0
  4 41  1  0  0  0  0
  5 42  1  0  0  0  0
  6 40  1  0  0  0  0
  7 38  1  0  0  0  0
M  END
> <ID>
SCHEMBL21154681

> <InChIKey>
WQUUBRVHKLHHAI-XEQHKPOUSA-N

> <MW>
570.638

> <Series_Name>
Series_8

$$$$
SCHEMBL21154705
  Mrv1719007191914492D 0   0.00000     0.00000     0

 37 39  0  0  0  0              1 V2000 
    6.9761   -4.8558    0.0000 C   0  0  0  0  0  0  0  0  0  0  0  0
    7.7008   -5.2453    0.0000 C   0  0  0  0  0  0  0  0  0  0  0  0
    6.9852   -3.9923    0.0000 C   0  0  0  0  0  0  0  0  0  0  0  0
    6.2741   -3.6012    0.0000 C   0  0  0  0  0  0  0  0  0  0  0  0
    6.2593   -2.7162    0.0000 C   0  0  0  0  0  0  0  0  0  0  0  0
    4.7511   -2.6471    0.0000 O   0  0  0  0  0  0  0  0  0  0  0  0
    5.5371   -2.2497    0.0000 C   0  0  0  0  0  0  0  0  0  0  0  0
    3.3819   -1.0429    0.0000 C   0  0  0  0  0  0  0  0  0  0  0  0
    4.1302   -1.4599    0.0000 C   0  0  0  0  0  0  0  0  0  0  0  0
    2.6594   -1.4581    0.0000 C   0  0  0  0  0  0  0  0  0  0  0  0
    1.2332   -2.2978    0.0000 C   0  0  0  0  0  0  0  0  0  0  0  0
    1.9709   -2.7065    0.0000 C   0  0  0  0  0  0  0  0  0  0  0  0
    0.6712   -2.6352    0.0000 C   0  0  0  0  0  0  0  0  0  0  0  0
    1.2338   -1.4674    0.0000 C   0  0  0  0  0  0  0  0  0  0  0  0
    0.7493   -1.1536    0.0000 C   0  0  0  0  0  0  0  0  0  0  0  0
    1.9458   -1.0422    0.0000 C   0  0  0  0  0  0  0  0  0  0  0  0
    4.8803   -1.0635    0.0000 C   0  0  0  0  0  0  0  0  0  0  0  0
    4.8643   -0.2263    0.0000 O   0  0  0  0  0  0  0  0  0  0  0  0
    5.5464   -1.4585    0.0000 C   0  0  0  0  0  0  0  0  0  0  0  0
    6.2711   -1.0414    0.0000 C   0  0  0  0  0  0  0  0  0  0  0  0
    6.3971   -0.2263    0.0000 O   0  0  0  0  0  0  0  0  0  0  0  0
    7.7082   -1.0438    0.0000 C   0  0  0  0  0  0  0  0  0  0  0  0
    8.4101   -1.4691    0.0000 C   0  0  0  0  0  0  0  0  0  0  0  0
    9.1484   -1.0403    0.0000 C   0  0  0  0  0  0  0  0  0  0  0  0
    9.8471   -1.4694    0.0000 C   0  0  0  0  0  0  0  0  0  0  0  0
   10.2938   -1.2130    0.0000 C   0  0  0  0  0  0  0  0  0  0  0  0
    9.8459   -2.2964    0.0000 C   0  0  0  0  0  0  0  0  0  0  0  0
   10.3054   -2.5702    0.0000 C   0  0  0  0  0  0  0  0  0  0  0  0
    9.1492   -2.7265    0.0000 C   0  0  0  0  0  0  0  0  0  0  0  0
    8.4079   -2.2941    0.0000 C   0  0  0  0  0  0  0  0  0  0  0  0
    6.9648   -1.4557    0.0000 C   0  0  0  0  0  0  0  0  0  0  0  0
    7.7014   -3.6031    0.0000 C   0  0  0  0  0  0  0  0  0  0  0  0
    8.4086   -4.0021    0.0000 C   0  0  0  0  0  0  0  0  0  0  0  0
    8.4018   -4.8647    0.0000 C   0  0  0  0  0  0  0  0  0  0  0  0
    8.8349   -5.0938    0.0000 C   0  0  0  0  0  0  0  0  0  0  0  0
    7.7089   -5.8315    0.0000 C   0  0  0  0  0  0  0  0  0  0  0  0
    2.6725   -2.2879    0.0000 C   0  0  0  0  0  0  0  0  0  0  0  0
  1  2  1  0  0  0  0
  1  3  2  0  0  0  0
  2 34  2  0  0  0  0
  3  4  1  0  0  0  0
  3 32  1  0  0  0  0
  5  4  2  0  0  0  0
  6  7  2  0  0  0  0
  7 19  1  0  0  0  0
  7  5  1  0  0  0  0
  8  9  2  0  0  0  0
 10  8  1  0  0  0  0
 11 12  1  0  0  0  0
 11 14  2  0  0  0  0
 12 37  2  0  0  0  0
 13 11  1  0  0  0  0
 14 15  1  0  0  0  0
 14 16  1  0  0  0  0
 16 10  2  0  0  0  0
 17  9  1  0  0  0  0
 17 19  1  0  0  0  0
 18 17  2  0  0  0  0
 19 20  2  0  0  0  0
 20 21  1  0  0  0  0
 20 31  1  0  0  0  0
 22 23  1  0  0  0  0
 23 24  1  0  0  0  0
 24 25  2  0  0  0  0
 25 26  1  0  0  0  0
 27 28  1  0  0  0  0
 27 25  1  0  0  0  0
 29 27  2  0  0  0  0
 29 30  1  0  0  0  0
 30 23  2  0  0  0  0
 31 22  2  0  0  0  0
 32 33  2  0  0  0  0
 34 35  1  0  0  0  0
 34 33  1  0  0  0  0
 36  2  1  0  0  0  0
 37 10  1  0  0  0  0
M  END
> <ID>
SCHEMBL21154705

> <InChIKey>
IPEUDOCGYXHJAB-NLCRRHETSA-N

> <MW>
490.643

> <Series_Name>
Series_8

$$$$
SCHEMBL21154944
  Mrv1719007191916002D 0   0.00000     0.00000     0

 34 37  0  0  0  0              1 V2000 
    9.6714   -2.5694    0.0000 O   0  0  0  0  0  0  0  0  0  0  0  0
    4.0872   -0.6519    0.0000 C   0  0  0  0  0  0  0  0  0  0  0  0
    0.5278   -1.7468    0.0000 C   0  0  0  0  0  0  0  0  0  0  0  0
    2.6245   -1.3582    0.0000 C   0  0  0  0  0  0  0  0  0  0  0  0
    2.6329   -0.5391    0.0000 C   0  0  0  0  0  0  0  0  0  0  0  0
    1.8932   -0.1254    0.0000 C   0  0  0  0  0  0  0  0  0  0  0  0
    1.1827   -0.5349    0.0000 C   0  0  0  0  0  0  0  0  0  0  0  0
    1.1827   -1.3708    0.0000 C   0  0  0  0  0  0  0  0  0  0  0  0
    7.1297   -1.1409    0.0000 C   0  0  0  0  0  0  0  0  0  0  0  0
    6.4694   -0.5642    0.0000 C   0  0  0  0  0  0  0  0  0  0  0  0
    5.7296   -0.7774    0.0000 C   0  0  0  0  0  0  0  0  0  0  0  0
    5.5082   -1.5714    0.0000 C   0  0  0  0  0  0  0  0  0  0  0  0
    4.0789   -1.3290    0.0000 C   0  0  0  0  0  0  0  0  0  0  0  0
    9.3405   -1.3039    0.0000 C   0  0  0  0  0  0  0  0  0  0  0  0
    8.5256   -1.5170    0.0000 C   0  0  0  0  0  0  0  0  0  0  0  0
    7.9363   -0.9277    0.0000 C   0  0  0  0  0  0  0  0  0  0  0  0
    6.9207   -1.9308    0.0000 C   0  0  0  0  0  0  0  0  0  0  0  0
    6.1183   -2.1690    0.0000 C   0  0  0  0  0  0  0  0  0  0  0  0
    1.9057   -1.7928    0.0000 C   0  0  0  0  0  0  0  0  0  0  0  0
    4.4540   -2.5828    0.0000 C   0  0  0  0  0  0  0  0  0  0  0  0
    5.2783   -2.7332    0.0000 C   0  0  0  0  0  0  0  0  0  0  0  0
    5.1530   -3.5230    0.0000 C   0  0  0  0  0  0  0  0  0  0  0  0
    4.3254   -3.3977    0.0000 C   0  0  0  0  0  0  0  0  0  0  0  0
    3.6568   -2.5911    0.0000 C   0  0  0  0  0  0  0  0  0  0  0  0
    3.1093   -3.2660    0.0000 O   0  0  0  0  0  0  0  0  0  0  0  0
    4.7079   -1.7866    0.0000 N   0  0  0  0  0  0  0  0  0  0  0  0
    3.3663   -1.7866    0.0000 N   0  0  0  0  0  0  0  0  0  0  0  0
    0.5288   -0.1571    0.0000 C   0  0  0  0  0  0  0  0  0  0  0  0
   -0.1254   -1.3676    0.0000 F   0  0  0  0  0  0  0  0  0  0  0  0
    0.5260   -2.5020    0.0000 F   0  0  0  0  0  0  0  0  0  0  0  0
   -0.1272   -2.1228    0.0000 F   0  0  0  0  0  0  0  0  0  0  0  0
   -0.1251    0.2207    0.0000 N   0  0  0  0  0  0  0  0  0  0  0  0
    9.8713   -1.8411    0.0000 C   0  0  0  0  0  0  0  0  0  0  0  0
   10.6019   -1.6500    0.0000 O   0  0  0  0  0  0  0  0  0  0  0  0
  4  5  1  0  0  0  0
  5  6  2  0  0  0  0
  6  7  1  0  0  0  0
  7  8  2  0  0  0  0
  9 10  1  0  0  0  0
 10 11  2  0  0  0  0
 11 12  1  0  0  0  0
  2 13  2  0  0  0  0
 14 15  1  0  0  0  0
 15 16  1  0  0  0  0
  9 16  1  0  0  0  0
  9 17  2  0  0  0  0
 17 18  1  0  0  0  0
 12 18  2  0  0  0  0
  4 19  2  0  0  0  0
  8 19  1  0  0  0  0
 20 21  1  0  0  0  0
 21 22  1  0  0  0  0
 22 23  1  0  0  0  0
 20 23  1  0  0  0  0
 20 24  1  0  0  0  0
 24 25  2  0  0  0  0
 12 26  1  0  0  0  0
 13 26  1  0  0  0  0
 20 26  1  0  0  0  0
  4 27  1  0  0  0  0
 13 27  1  0  0  0  0
 24 27  1  0  0  0  0
  7 28  1  0  0  0  0
 14 33  1  0  0  0  0
  8  3  1  0  0  0  0
 28 32  3  0  0  0  0
  1 33  1  0  0  0  0
 33 34  2  0  0  0  0
  3 29  1  0  0  0  0
  3 30  1  0  0  0  0
  3 31  1  0  0  0  0
M  END
> <ID>
SCHEMBL21154944

> <InChIKey>
NNLGPEJIXKSSRE-UHFFFAOYSA-N

> <MW>
469.464

> <Series_Name>
Series_1

$$$$
SCHEMBL21154956
  Mrv1719007191916032D 0   0.00000     0.00000     0

 33 36  0  0  0  0              1 V2000 
    8.9618   -0.1181    0.0000 O   0  0  0  0  0  0  0  0  0  0  0  0
    9.8195   -1.3610    0.0000 O   0  0  0  0  0  0  0  0  0  0  0  0
    0.5253   -2.5620    0.0000 C   0  0  0  0  0  0  0  0  0  0  0  0
    4.0521   -1.4792    0.0000 C   0  0  0  0  0  0  0  0  0  0  0  0
    9.0157   -0.9695    0.0000 C   0  0  0  0  0  0  0  0  0  0  0  0
    8.2533   -1.3673    0.0000 C   0  0  0  0  0  0  0  0  0  0  0  0
    7.5324   -0.9446    0.0000 C   0  0  0  0  0  0  0  0  0  0  0  0
    6.8157   -1.3632    0.0000 C   0  0  0  0  0  0  0  0  0  0  0  0
    6.8239   -2.1752    0.0000 C   0  0  0  0  0  0  0  0  0  0  0  0
    6.1154   -2.5978    0.0000 C   0  0  0  0  0  0  0  0  0  0  0  0
    5.3821   -2.1793    0.0000 C   0  0  0  0  0  0  0  0  0  0  0  0
    2.6020   -2.1793    0.0000 C   0  0  0  0  0  0  0  0  0  0  0  0
    2.6102   -1.3673    0.0000 C   0  0  0  0  0  0  0  0  0  0  0  0
    1.9514   -0.9820    0.0000 C   0  0  0  0  0  0  0  0  0  0  0  0
    1.1684   -1.3632    0.0000 C   0  0  0  0  0  0  0  0  0  0  0  0
    6.0533   -0.9695    0.0000 C   0  0  0  0  0  0  0  0  0  0  0  0
    5.3821   -1.3673    0.0000 C   0  0  0  0  0  0  0  0  0  0  0  0
    1.1684   -2.1918    0.0000 C   0  0  0  0  0  0  0  0  0  0  0  0
    4.0438   -2.1503    0.0000 C   0  0  0  0  0  0  0  0  0  0  0  0
    1.8893   -2.6102    0.0000 C   0  0  0  0  0  0  0  0  0  0  0  0
    4.4033   -3.3933    0.0000 C   0  0  0  0  0  0  0  0  0  0  0  0
    5.2081   -3.6171    0.0000 C   0  0  0  0  0  0  0  0  0  0  0  0
    4.9346   -4.4001    0.0000 C   0  0  0  0  0  0  0  0  0  0  0  0
    4.2012   -4.1888    0.0000 C   0  0  0  0  0  0  0  0  0  0  0  0
    3.5901   -3.3747    0.0000 C   0  0  0  0  0  0  0  0  0  0  0  0
    3.1572   -4.1080    0.0000 O   0  0  0  0  0  0  0  0  0  0  0  0
    4.6674   -2.6040    0.0000 N   0  0  0  0  0  0  0  0  0  0  0  0
    3.3249   -2.6040    0.0000 N   0  0  0  0  0  0  0  0  0  0  0  0
    0.5392   -0.9696    0.0000 C   0  0  0  0  0  0  0  0  0  0  0  0
    0.5243   -3.3042    0.0000 F   0  0  0  0  0  0  0  0  0  0  0  0
   -0.1170   -2.1902    0.0000 F   0  0  0  0  0  0  0  0  0  0  0  0
   -0.1179   -2.9323    0.0000 F   0  0  0  0  0  0  0  0  0  0  0  0
   -0.0900   -0.5760    0.0000 N   0  0  0  0  0  0  0  0  0  0  0  0
  1  5  2  0  0  0  0
  2  5  1  0  0  0  0
  5  6  1  0  0  0  0
  6  7  2  0  0  0  0
  7  8  1  0  0  0  0
  8  9  2  0  0  0  0
  9 10  1  0  0  0  0
 10 11  2  0  0  0  0
 12 13  1  0  0  0  0
 13 14  2  0  0  0  0
 14 15  1  0  0  0  0
  8 16  1  0  0  0  0
 16 17  2  0  0  0  0
 11 17  1  0  0  0  0
 15 18  2  0  0  0  0
  4 19  2  0  0  0  0
 12 20  2  0  0  0  0
 18 20  1  0  0  0  0
 21 22  1  0  0  0  0
 22 23  1  0  0  0  0
 23 24  1  0  0  0  0
 21 24  1  0  0  0  0
 21 25  1  0  0  0  0
 25 26  2  0  0  0  0
 11 27  1  0  0  0  0
 19 27  1  0  0  0  0
 21 27  1  0  0  0  0
 12 28  1  0  0  0  0
 19 28  1  0  0  0  0
 25 28  1  0  0  0  0
 15 29  1  0  0  0  0
 18  3  1  0  0  0  0
 29 33  3  0  0  0  0
  3 30  1  0  0  0  0
  3 31  1  0  0  0  0
  3 32  1  0  0  0  0
M  END
> <ID>
SCHEMBL21154956

> <InChIKey>
ZRWMVSCVRMZSCN-BJMVGYQFSA-N

> <MW>
453.421

> <Series_Name>
Series_1

$$$$
SCHEMBL21154957
  Mrv1719007191916032D 0   0.00000     0.00000     0

 34 37  0  0  0  0              1 V2000 
    8.9863   -0.1184    0.0000 O   0  0  0  0  0  0  0  0  0  0  0  0
    0.5353   -0.9803    0.0000 C   0  0  0  0  0  0  0  0  0  0  0  0
    0.5250   -2.5667    0.0000 C   0  0  0  0  0  0  0  0  0  0  0  0
    4.0632   -1.4956    0.0000 C   0  0  0  0  0  0  0  0  0  0  0  0
    9.0403   -0.9722    0.0000 C   0  0  0  0  0  0  0  0  0  0  0  0
    2.6090   -2.1853    0.0000 C   0  0  0  0  0  0  0  0  0  0  0  0
    2.6173   -1.3835    0.0000 C   0  0  0  0  0  0  0  0  0  0  0  0
    1.9319   -0.9722    0.0000 C   0  0  0  0  0  0  0  0  0  0  0  0
    1.1716   -1.3668    0.0000 C   0  0  0  0  0  0  0  0  0  0  0  0
    6.8342   -1.3668    0.0000 C   0  0  0  0  0  0  0  0  0  0  0  0
    6.1321   -0.9597    0.0000 C   0  0  0  0  0  0  0  0  0  0  0  0
    5.3968   -1.3709    0.0000 C   0  0  0  0  0  0  0  0  0  0  0  0
    5.3968   -2.1978    0.0000 C   0  0  0  0  0  0  0  0  0  0  0  0
    8.2758   -1.3709    0.0000 C   0  0  0  0  0  0  0  0  0  0  0  0
    7.4907   -0.9846    0.0000 C   0  0  0  0  0  0  0  0  0  0  0  0
    6.8425   -2.1812    0.0000 C   0  0  0  0  0  0  0  0  0  0  0  0
    6.1196   -2.6173    0.0000 C   0  0  0  0  0  0  0  0  0  0  0  0
    1.1716   -2.1978    0.0000 C   0  0  0  0  0  0  0  0  0  0  0  0
    4.0549   -2.1562    0.0000 C   0  0  0  0  0  0  0  0  0  0  0  0
    1.8820   -2.6173    0.0000 C   0  0  0  0  0  0  0  0  0  0  0  0
    4.4184   -3.4057    0.0000 C   0  0  0  0  0  0  0  0  0  0  0  0
    4.2127   -4.2003    0.0000 C   0  0  0  0  0  0  0  0  0  0  0  0
    4.9854   -4.4246    0.0000 C   0  0  0  0  0  0  0  0  0  0  0  0
    5.2223   -3.6269    0.0000 C   0  0  0  0  0  0  0  0  0  0  0  0
    3.5999   -3.3839    0.0000 C   0  0  0  0  0  0  0  0  0  0  0  0
    3.1658   -4.1317    0.0000 O   0  0  0  0  0  0  0  0  0  0  0  0
    4.6801   -2.6111    0.0000 N   0  0  0  0  0  0  0  0  0  0  0  0
    3.3340   -2.6111    0.0000 N   0  0  0  0  0  0  0  0  0  0  0  0
    9.6887   -1.3377    0.0000 O   0  0  0  0  0  0  0  0  0  0  0  0
   -0.1178   -2.1913    0.0000 F   0  0  0  0  0  0  0  0  0  0  0  0
    0.5212   -3.3112    0.0000 F   0  0  0  0  0  0  0  0  0  0  0  0
   -0.1215   -2.9357    0.0000 F   0  0  0  0  0  0  0  0  0  0  0  0
   10.3373   -1.7033    0.0000 C   0  0  0  0  0  0  0  0  0  0  0  0
   -0.1010   -0.5937    0.0000 N   0  0  0  0  0  0  0  0  0  0  0  0
  1  5  2  0  0  0  0
  6  7  1  0  0  0  0
  7  8  2  0  0  0  0
  8  9  1  0  0  0  0
 10 11  1  0  0  0  0
 11 12  2  0  0  0  0
 12 13  1  0  0  0  0
  5 14  1  0  0  0  0
 14 15  1  0  0  0  0
 10 15  1  0  0  0  0
 10 16  2  0  0  0  0
 16 17  1  0  0  0  0
 13 17  2  0  0  0  0
  9 18  2  0  0  0  0
  4 19  2  0  0  0  0
  6 20  2  0  0  0  0
 18 20  1  0  0  0  0
 21 22  1  0  0  0  0
 22 23  1  0  0  0  0
 23 24  1  0  0  0  0
 21 24  1  0  0  0  0
 21 25  1  0  0  0  0
 25 26  2  0  0  0  0
 13 27  1  0  0  0  0
 19 27  1  0  0  0  0
 21 27  1  0  0  0  0
  6 28  1  0  0  0  0
 19 28  1  0  0  0  0
 25 28  1  0  0  0  0
  5 29  1  0  0  0  0
  9  2  1  0  0  0  0
 18  3  1  0  0  0  0
 29 33  1  0  0  0  0
  2 34  3  0  0  0  0
  3 30  1  0  0  0  0
  3 31  1  0  0  0  0
  3 32  1  0  0  0  0
M  END
> <ID>
SCHEMBL21154957

> <InChIKey>
NGKPOUQJPLUELB-UHFFFAOYSA-N

> <MW>
469.464

> <Series_Name>
Series_1

$$$$
SCHEMBL21154958
  Mrv1719007191916032D 0   0.00000     0.00000     0

 36 39  0  0  0  0              1 V2000 
    8.9608   -0.1181    0.0000 O   0  0  0  0  0  0  0  0  0  0  0  0
    0.5293   -2.5595    0.0000 C   0  0  0  0  0  0  0  0  0  0  0  0
    4.0516   -1.4789    0.0000 C   0  0  0  0  0  0  0  0  0  0  0  0
    9.0974   -3.4364    0.0000 O   0  0  0  0  0  0  0  0  0  0  0  0
    9.0146   -0.9694    0.0000 C   0  0  0  0  0  0  0  0  0  0  0  0
    2.6016   -2.1791    0.0000 C   0  0  0  0  0  0  0  0  0  0  0  0
    2.6099   -1.3795    0.0000 C   0  0  0  0  0  0  0  0  0  0  0  0
    1.9263   -0.9694    0.0000 C   0  0  0  0  0  0  0  0  0  0  0  0
    1.1682   -1.3630    0.0000 C   0  0  0  0  0  0  0  0  0  0  0  0
    6.8148   -1.3630    0.0000 C   0  0  0  0  0  0  0  0  0  0  0  0
    6.1147   -0.9570    0.0000 C   0  0  0  0  0  0  0  0  0  0  0  0
    5.3814   -1.3671    0.0000 C   0  0  0  0  0  0  0  0  0  0  0  0
    5.3814   -2.1915    0.0000 C   0  0  0  0  0  0  0  0  0  0  0  0
    8.2523   -1.3671    0.0000 C   0  0  0  0  0  0  0  0  0  0  0  0
    7.4693   -0.9818    0.0000 C   0  0  0  0  0  0  0  0  0  0  0  0
    6.8231   -2.1749    0.0000 C   0  0  0  0  0  0  0  0  0  0  0  0
    6.1023   -2.6099    0.0000 C   0  0  0  0  0  0  0  0  0  0  0  0
    1.1682   -2.1915    0.0000 C   0  0  0  0  0  0  0  0  0  0  0  0
    4.0433   -2.1501    0.0000 C   0  0  0  0  0  0  0  0  0  0  0  0
    9.6940   -2.1749    0.0000 C   0  0  0  0  0  0  0  0  0  0  0  0
    8.9732   -2.6099    0.0000 C   0  0  0  0  0  0  0  0  0  0  0  0
    1.8891   -2.6099    0.0000 C   0  0  0  0  0  0  0  0  0  0  0  0
    4.4027   -3.3929    0.0000 C   0  0  0  0  0  0  0  0  0  0  0  0
    5.2074   -3.6166    0.0000 C   0  0  0  0  0  0  0  0  0  0  0  0
    4.9713   -4.4120    0.0000 C   0  0  0  0  0  0  0  0  0  0  0  0
    4.2007   -4.1883    0.0000 C   0  0  0  0  0  0  0  0  0  0  0  0
    3.5897   -3.3743    0.0000 C   0  0  0  0  0  0  0  0  0  0  0  0
    3.1568   -4.1199    0.0000 O   0  0  0  0  0  0  0  0  0  0  0  0
    4.6668   -2.6037    0.0000 N   0  0  0  0  0  0  0  0  0  0  0  0
    3.3245   -2.6037    0.0000 N   0  0  0  0  0  0  0  0  0  0  0  0
    9.8121   -1.3609    0.0000 N   0  0  0  0  0  0  0  0  0  0  0  0
    0.5381   -0.9800    0.0000 C   0  0  0  0  0  0  0  0  0  0  0  0
   -0.1091   -2.1901    0.0000 F   0  0  0  0  0  0  0  0  0  0  0  0
    0.5285   -3.2969    0.0000 F   0  0  0  0  0  0  0  0  0  0  0  0
   -0.1097   -2.9276    0.0000 F   0  0  0  0  0  0  0  0  0  0  0  0
   -0.0919   -0.5970    0.0000 N   0  0  0  0  0  0  0  0  0  0  0  0
  1  5  2  0  0  0  0
  6  7  1  0  0  0  0
  7  8  2  0  0  0  0
  8  9  1  0  0  0  0
 10 11  1  0  0  0  0
 11 12  2  0  0  0  0
 12 13  1  0  0  0  0
  5 14  1  0  0  0  0
 14 15  1  0  0  0  0
 10 15  1  0  0  0  0
 10 16  2  0  0  0  0
 16 17  1  0  0  0  0
 13 17  2  0  0  0  0
  9 18  2  0  0  0  0
  3 19  2  0  0  0  0
 20 21  1  0  0  0  0
  4 21  1  0  0  0  0
  6 22  2  0  0  0  0
 18 22  1  0  0  0  0
 23 24  1  0  0  0  0
 24 25  1  0  0  0  0
 25 26  1  0  0  0  0
 23 26  1  0  0  0  0
 23 27  1  0  0  0  0
 27 28  2  0  0  0  0
 13 29  1  0  0  0  0
 19 29  1  0  0  0  0
 23 29  1  0  0  0  0
  6 30  1  0  0  0  0
 19 30  1  0  0  0  0
 27 30  1  0  0  0  0
  5 31  1  0  0  0  0
 20 31  1  0  0  0  0
  9 32  1  0  0  0  0
 18  2  1  0  0  0  0
 32 36  3  0  0  0  0
  2 33  1  0  0  0  0
  2 34  1  0  0  0  0
  2 35  1  0  0  0  0
M  END
> <ID>
SCHEMBL21154958

> <InChIKey>
HIYUXQBTRRXBAK-UHFFFAOYSA-N

> <MW>
498.506

> <Series_Name>
Series_1

$$$$
SCHEMBL21154961
  Mrv1719007191916032D 0   0.00000     0.00000     0

 32 35  0  0  0  0              1 V2000 
    0.5199   -1.7222    0.0000 C   0  0  0  0  0  0  0  0  0  0  0  0
    9.1547   -0.1188    0.0000 O   0  0  0  0  0  0  0  0  0  0  0  0
    4.0771   -0.6504    0.0000 C   0  0  0  0  0  0  0  0  0  0  0  0
    2.6180   -1.3548    0.0000 C   0  0  0  0  0  0  0  0  0  0  0  0
    2.6264   -0.5377    0.0000 C   0  0  0  0  0  0  0  0  0  0  0  0
    1.9510   -0.1376    0.0000 C   0  0  0  0  0  0  0  0  0  0  0  0
    1.1756   -0.5335    0.0000 C   0  0  0  0  0  0  0  0  0  0  0  0
    6.8577   -0.5252    0.0000 C   0  0  0  0  0  0  0  0  0  0  0  0
    6.1031   -0.1251    0.0000 C   0  0  0  0  0  0  0  0  0  0  0  0
    5.4153   -0.5377    0.0000 C   0  0  0  0  0  0  0  0  0  0  0  0
    5.4153   -1.3548    0.0000 C   0  0  0  0  0  0  0  0  0  0  0  0
    7.5789   -0.1125    0.0000 C   0  0  0  0  0  0  0  0  0  0  0  0
    6.8660   -1.3507    0.0000 C   0  0  0  0  0  0  0  0  0  0  0  0
    6.1282   -1.7759    0.0000 C   0  0  0  0  0  0  0  0  0  0  0  0
    1.1673   -1.3548    0.0000 C   0  0  0  0  0  0  0  0  0  0  0  0
    4.0688   -1.3132    0.0000 C   0  0  0  0  0  0  0  0  0  0  0  0
    1.8884   -1.7759    0.0000 C   0  0  0  0  0  0  0  0  0  0  0  0
    4.4335   -2.5763    0.0000 C   0  0  0  0  0  0  0  0  0  0  0  0
    4.2272   -3.3768    0.0000 C   0  0  0  0  0  0  0  0  0  0  0  0
    5.0276   -3.5769    0.0000 C   0  0  0  0  0  0  0  0  0  0  0  0
    5.2402   -2.8014    0.0000 C   0  0  0  0  0  0  0  0  0  0  0  0
    3.6123   -2.5576    0.0000 C   0  0  0  0  0  0  0  0  0  0  0  0
    3.1766   -3.2955    0.0000 O   0  0  0  0  0  0  0  0  0  0  0  0
    8.2980   -0.5148    0.0000 C   0  0  0  0  0  0  0  0  0  0  0  0
    8.2918   -1.3695    0.0000 O   0  0  0  0  0  0  0  0  0  0  0  0
    4.6962   -1.7821    0.0000 N   0  0  0  0  0  0  0  0  0  0  0  0
    3.3455   -1.7821    0.0000 N   0  0  0  0  0  0  0  0  0  0  0  0
    0.5427   -0.1417    0.0000 C   0  0  0  0  0  0  0  0  0  0  0  0
   -0.1221   -1.3453    0.0000 F   0  0  0  0  0  0  0  0  0  0  0  0
    0.5144   -2.4666    0.0000 F   0  0  0  0  0  0  0  0  0  0  0  0
   -0.1275   -2.0896    0.0000 F   0  0  0  0  0  0  0  0  0  0  0  0
   -0.0901    0.2501    0.0000 N   0  0  0  0  0  0  0  0  0  0  0  0
  4  5  1  0  0  0  0
  5  6  2  0  0  0  0
  6  7  1  0  0  0  0
  8  9  1  0  0  0  0
  9 10  2  0  0  0  0
 10 11  1  0  0  0  0
  8 12  1  0  0  0  0
  8 13  2  0  0  0  0
 13 14  1  0  0  0  0
 11 14  2  0  0  0  0
  7 15  2  0  0  0  0
  3 16  2  0  0  0  0
  4 17  2  0  0  0  0
 15 17  1  0  0  0  0
 18 19  1  0  0  0  0
 19 20  1  0  0  0  0
 20 21  1  0  0  0  0
 18 21  1  0  0  0  0
 18 22  1  0  0  0  0
 22 23  2  0  0  0  0
  2 24  1  0  0  0  0
 12 24  1  0  0  0  0
 24 25  2  0  0  0  0
 11 26  1  0  0  0  0
 16 26  1  0  0  0  0
 18 26  1  0  0  0  0
  4 27  1  0  0  0  0
 16 27  1  0  0  0  0
 22 27  1  0  0  0  0
  7 28  1  0  0  0  0
 15  1  1  0  0  0  0
 28 32  3  0  0  0  0
  1 29  1  0  0  0  0
  1 30  1  0  0  0  0
  1 31  1  0  0  0  0
M  END
> <ID>
SCHEMBL21154961

> <InChIKey>
UPYZRRNKAMDSDN-UHFFFAOYSA-N

> <MW>
441.41

> <Series_Name>
Series_1

$$$$
SCHEMBL21154963
  Mrv1719007191916032D 0   0.00000     0.00000     0

 36 39  0  0  0  0              1 V2000 
    0.5189   -2.5521    0.0000 C   0  0  0  0  0  0  0  0  0  0  0  0
    4.0681   -1.4850    0.0000 C   0  0  0  0  0  0  0  0  0  0  0  0
    9.1344   -3.4504    0.0000 O   0  0  0  0  0  0  0  0  0  0  0  0
    2.6122   -2.1879    0.0000 C   0  0  0  0  0  0  0  0  0  0  0  0
    2.6205   -1.3727    0.0000 C   0  0  0  0  0  0  0  0  0  0  0  0
    1.8968   -0.9484    0.0000 C   0  0  0  0  0  0  0  0  0  0  0  0
    1.1730   -1.3685    0.0000 C   0  0  0  0  0  0  0  0  0  0  0  0
    8.2858   -1.3727    0.0000 C   0  0  0  0  0  0  0  0  0  0  0  0
    7.5621   -0.9484    0.0000 C   0  0  0  0  0  0  0  0  0  0  0  0
    6.8424   -1.3685    0.0000 C   0  0  0  0  0  0  0  0  0  0  0  0
    6.8508   -2.1838    0.0000 C   0  0  0  0  0  0  0  0  0  0  0  0
    6.1395   -2.6080    0.0000 C   0  0  0  0  0  0  0  0  0  0  0  0
    5.4032   -2.1879    0.0000 C   0  0  0  0  0  0  0  0  0  0  0  0
    6.0521   -0.9858    0.0000 C   0  0  0  0  0  0  0  0  0  0  0  0
    5.4032   -1.3727    0.0000 C   0  0  0  0  0  0  0  0  0  0  0  0
    1.1647   -2.1879    0.0000 C   0  0  0  0  0  0  0  0  0  0  0  0
    4.0597   -2.1463    0.0000 C   0  0  0  0  0  0  0  0  0  0  0  0
    9.7334   -2.1838    0.0000 C   0  0  0  0  0  0  0  0  0  0  0  0
    9.0096   -2.6205    0.0000 C   0  0  0  0  0  0  0  0  0  0  0  0
    1.8968   -2.6205    0.0000 C   0  0  0  0  0  0  0  0  0  0  0  0
    4.4206   -3.4067    0.0000 C   0  0  0  0  0  0  0  0  0  0  0  0
    5.2286   -3.6313    0.0000 C   0  0  0  0  0  0  0  0  0  0  0  0
    5.0289   -4.3925    0.0000 C   0  0  0  0  0  0  0  0  0  0  0  0
    4.2178   -4.2053    0.0000 C   0  0  0  0  0  0  0  0  0  0  0  0
    9.0054   -0.9692    0.0000 C   0  0  0  0  0  0  0  0  0  0  0  0
    8.9971   -0.1186    0.0000 O   0  0  0  0  0  0  0  0  0  0  0  0
    3.6042   -3.3879    0.0000 C   0  0  0  0  0  0  0  0  0  0  0  0
    3.1695   -4.1242    0.0000 O   0  0  0  0  0  0  0  0  0  0  0  0
    4.6857   -2.6142    0.0000 N   0  0  0  0  0  0  0  0  0  0  0  0
    3.3380   -2.6142    0.0000 N   0  0  0  0  0  0  0  0  0  0  0  0
    9.7209   -1.3664    0.0000 O   0  0  0  0  0  0  0  0  0  0  0  0
    0.5323   -0.9953    0.0000 C   0  0  0  0  0  0  0  0  0  0  0  0
   -0.1194   -2.1750    0.0000 F   0  0  0  0  0  0  0  0  0  0  0  0
    0.5114   -3.2935    0.0000 F   0  0  0  0  0  0  0  0  0  0  0  0
   -0.1269   -2.9163    0.0000 F   0  0  0  0  0  0  0  0  0  0  0  0
   -0.1083   -0.6221    0.0000 N   0  0  0  0  0  0  0  0  0  0  0  0
  4  5  1  0  0  0  0
  5  6  2  0  0  0  0
  6  7  1  0  0  0  0
  8  9  1  0  0  0  0
  9 10  1  0  0  0  0
 10 11  2  0  0  0  0
 11 12  1  0  0  0  0
 12 13  2  0  0  0  0
 10 14  1  0  0  0  0
 14 15  2  0  0  0  0
 13 15  1  0  0  0  0
  7 16  2  0  0  0  0
  2 17  2  0  0  0  0
 18 19  1  0  0  0  0
  3 19  1  0  0  0  0
  4 20  2  0  0  0  0
 16 20  1  0  0  0  0
 21 22  1  0  0  0  0
 22 23  1  0  0  0  0
 23 24  1  0  0  0  0
 21 24  1  0  0  0  0
  8 25  1  0  0  0  0
 25 26  2  0  0  0  0
 21 27  1  0  0  0  0
 27 28  2  0  0  0  0
 13 29  1  0  0  0  0
 17 29  1  0  0  0  0
 21 29  1  0  0  0  0
  4 30  1  0  0  0  0
 17 30  1  0  0  0  0
 27 30  1  0  0  0  0
 18 31  1  0  0  0  0
 25 31  1  0  0  0  0
  7 32  1  0  0  0  0
 16  1  1  0  0  0  0
 32 36  3  0  0  0  0
  1 33  1  0  0  0  0
  1 34  1  0  0  0  0
  1 35  1  0  0  0  0
M  END
> <ID>
SCHEMBL21154963

> <InChIKey>
QEWLOTUUIOXNSE-UHFFFAOYSA-N

> <MW>
499.49

> <Series_Name>
Series_1

$$$$
SCHEMBL21155253
  Mrv1719007191917082D 0   0.00000     0.00000     0

 34 37  0  0  0  0              1 V2000 
    8.9715   -0.1182    0.0000 O   0  0  0  0  0  0  0  0  0  0  0  0
   10.4024   -0.9457    0.0000 C   0  0  0  0  0  0  0  0  0  0  0  0
    0.5453   -2.5494    0.0000 C   0  0  0  0  0  0  0  0  0  0  0  0
    4.0564   -1.4807    0.0000 C   0  0  0  0  0  0  0  0  0  0  0  0
    9.0254   -0.9581    0.0000 C   0  0  0  0  0  0  0  0  0  0  0  0
    2.6131   -2.1817    0.0000 C   0  0  0  0  0  0  0  0  0  0  0  0
    2.6131   -1.3687    0.0000 C   0  0  0  0  0  0  0  0  0  0  0  0
    1.9038   -0.9457    0.0000 C   0  0  0  0  0  0  0  0  0  0  0  0
    1.1738   -1.3521    0.0000 C   0  0  0  0  0  0  0  0  0  0  0  0
    1.1821   -2.1817    0.0000 C   0  0  0  0  0  0  0  0  0  0  0  0
    6.8230   -1.3521    0.0000 C   0  0  0  0  0  0  0  0  0  0  0  0
    6.1220   -0.9457    0.0000 C   0  0  0  0  0  0  0  0  0  0  0  0
    5.4252   -1.3314    0.0000 C   0  0  0  0  0  0  0  0  0  0  0  0
    5.3920   -2.1817    0.0000 C   0  0  0  0  0  0  0  0  0  0  0  0
    8.2747   -1.3563    0.0000 C   0  0  0  0  0  0  0  0  0  0  0  0
    7.5529   -0.9457    0.0000 C   0  0  0  0  0  0  0  0  0  0  0  0
    6.8313   -2.1775    0.0000 C   0  0  0  0  0  0  0  0  0  0  0  0
    6.1096   -2.6006    0.0000 C   0  0  0  0  0  0  0  0  0  0  0  0
    4.0482   -2.1402    0.0000 C   0  0  0  0  0  0  0  0  0  0  0  0
    1.8913   -2.6006    0.0000 C   0  0  0  0  0  0  0  0  0  0  0  0
    4.4204   -3.3907    0.0000 C   0  0  0  0  0  0  0  0  0  0  0  0
    5.2136   -3.6210    0.0000 C   0  0  0  0  0  0  0  0  0  0  0  0
    4.9897   -4.4049    0.0000 C   0  0  0  0  0  0  0  0  0  0  0  0
    4.2058   -4.1809    0.0000 C   0  0  0  0  0  0  0  0  0  0  0  0
    3.5961   -3.3721    0.0000 C   0  0  0  0  0  0  0  0  0  0  0  0
    3.1606   -4.1125    0.0000 O   0  0  0  0  0  0  0  0  0  0  0  0
    4.6849   -2.5944    0.0000 N   0  0  0  0  0  0  0  0  0  0  0  0
    3.3409   -2.5944    0.0000 N   0  0  0  0  0  0  0  0  0  0  0  0
    9.7118   -1.3501    0.0000 N   0  0  0  0  0  0  0  0  0  0  0  0
    0.5380   -0.9827    0.0000 C   0  0  0  0  0  0  0  0  0  0  0  0
   -0.0916   -2.1817    0.0000 F   0  0  0  0  0  0  0  0  0  0  0  0
    0.5453   -3.2848    0.0000 F   0  0  0  0  0  0  0  0  0  0  0  0
   -0.0916   -2.9171    0.0000 F   0  0  0  0  0  0  0  0  0  0  0  0
   -0.0979   -0.6133    0.0000 N   0  0  0  0  0  0  0  0  0  0  0  0
  1  5  2  0  0  0  0
  6  7  1  0  0  0  0
  7  8  2  0  0  0  0
  8  9  1  0  0  0  0
  9 10  2  0  0  0  0
 11 12  1  0  0  0  0
 12 13  2  0  0  0  0
 13 14  1  0  0  0  0
  5 15  1  0  0  0  0
 15 16  1  0  0  0  0
 11 16  1  0  0  0  0
 11 17  2  0  0  0  0
 17 18  1  0  0  0  0
 14 18  2  0  0  0  0
  4 19  2  0  0  0  0
  6 20  2  0  0  0  0
 10 20  1  0  0  0  0
 21 22  1  0  0  0  0
 22 23  1  0  0  0  0
 23 24  1  0  0  0  0
 21 24  1  0  0  0  0
 21 25  1  0  0  0  0
 25 26  2  0  0  0  0
 14 27  1  0  0  0  0
 19 27  1  0  0  0  0
 21 27  1  0  0  0  0
  6 28  1  0  0  0  0
 19 28  1  0  0  0  0
 25 28  1  0  0  0  0
  2 29  1  0  0  0  0
  5 29  1  0  0  0  0
  9 30  1  0  0  0  0
 10  3  1  0  0  0  0
 30 34  3  0  0  0  0
  3 31  1  0  0  0  0
  3 32  1  0  0  0  0
  3 33  1  0  0  0  0
M  END
> <ID>
SCHEMBL21155253

> <InChIKey>
BFWFZEYNXBFLHM-UHFFFAOYSA-N

> <MW>
468.48

> <Series_Name>
Series_1

$$$$
SCHEMBL21155262
  Mrv1719007191917102D 0   0.00000     0.00000     0

 31 34  0  0  0  0              1 V2000 
    7.7032   -0.1187    0.0000 O   0  0  0  0  0  0  0  0  0  0  0  0
    0.5420   -0.9860    0.0000 C   0  0  0  0  0  0  0  0  0  0  0  0
    0.5317   -2.5702    0.0000 C   0  0  0  0  0  0  0  0  0  0  0  0
    4.0734   -1.4994    0.0000 C   0  0  0  0  0  0  0  0  0  0  0  0
    7.5720   -0.9538    0.0000 C   0  0  0  0  0  0  0  0  0  0  0  0
    2.6156   -2.1908    0.0000 C   0  0  0  0  0  0  0  0  0  0  0  0
    2.6240   -1.3870    0.0000 C   0  0  0  0  0  0  0  0  0  0  0  0
    1.9367   -0.9746    0.0000 C   0  0  0  0  0  0  0  0  0  0  0  0
    1.1746   -1.3703    0.0000 C   0  0  0  0  0  0  0  0  0  0  0  0
    6.8515   -1.3703    0.0000 C   0  0  0  0  0  0  0  0  0  0  0  0
    6.1475   -0.9621    0.0000 C   0  0  0  0  0  0  0  0  0  0  0  0
    5.4104   -1.3745    0.0000 C   0  0  0  0  0  0  0  0  0  0  0  0
    5.4104   -2.2033    0.0000 C   0  0  0  0  0  0  0  0  0  0  0  0
    6.8598   -2.1867    0.0000 C   0  0  0  0  0  0  0  0  0  0  0  0
    6.1226   -2.6240    0.0000 C   0  0  0  0  0  0  0  0  0  0  0  0
    1.1746   -2.2033    0.0000 C   0  0  0  0  0  0  0  0  0  0  0  0
    4.0651   -2.1617    0.0000 C   0  0  0  0  0  0  0  0  0  0  0  0
    1.8867   -2.6240    0.0000 C   0  0  0  0  0  0  0  0  0  0  0  0
    4.4295   -3.4143    0.0000 C   0  0  0  0  0  0  0  0  0  0  0  0
    4.2234   -4.2109    0.0000 C   0  0  0  0  0  0  0  0  0  0  0  0
    4.9981   -4.4358    0.0000 C   0  0  0  0  0  0  0  0  0  0  0  0
    5.2355   -3.6361    0.0000 C   0  0  0  0  0  0  0  0  0  0  0  0
    3.6090   -3.3924    0.0000 C   0  0  0  0  0  0  0  0  0  0  0  0
    3.1738   -4.1421    0.0000 O   0  0  0  0  0  0  0  0  0  0  0  0
    4.6919   -2.6177    0.0000 N   0  0  0  0  0  0  0  0  0  0  0  0
    3.3424   -2.6177    0.0000 N   0  0  0  0  0  0  0  0  0  0  0  0
    8.1824   -1.3725    0.0000 C   0  0  0  0  0  0  0  0  0  0  0  0
   -0.1075   -2.1969    0.0000 F   0  0  0  0  0  0  0  0  0  0  0  0
    0.5280   -3.3104    0.0000 F   0  0  0  0  0  0  0  0  0  0  0  0
   -0.1112   -2.9371    0.0000 F   0  0  0  0  0  0  0  0  0  0  0  0
   -0.0906   -0.6017    0.0000 N   0  0  0  0  0  0  0  0  0  0  0  0
  1  5  1  0  0  0  0
  6  7  1  0  0  0  0
  7  8  2  0  0  0  0
  8  9  1  0  0  0  0
  5 10  1  0  0  0  0
 10 11  1  0  0  0  0
 11 12  2  0  0  0  0
 12 13  1  0  0  0  0
 10 14  2  0  0  0  0
 14 15  1  0  0  0  0
 13 15  2  0  0  0  0
  9 16  2  0  0  0  0
  4 17  2  0  0  0  0
  6 18  2  0  0  0  0
 16 18  1  0  0  0  0
 19 20  1  0  0  0  0
 20 21  1  0  0  0  0
 21 22  1  0  0  0  0
 19 22  1  0  0  0  0
 19 23  1  0  0  0  0
 23 24  2  0  0  0  0
 13 25  1  0  0  0  0
 17 25  1  0  0  0  0
 19 25  1  0  0  0  0
  6 26  1  0  0  0  0
 17 26  1  0  0  0  0
 23 26  1  0  0  0  0
  5 27  1  0  0  0  0
  9  2  1  0  0  0  0
 16  3  1  0  0  0  0
  2 31  3  0  0  0  0
  3 28  1  0  0  0  0
  3 29  1  0  0  0  0
  3 30  1  0  0  0  0
M  END
> <ID>
SCHEMBL21155262

> <InChIKey>
ASDSXMGZVYNDPC-UHFFFAOYSA-N

> <MW>
427.427

> <Series_Name>
Series_1

$$$$
SCHEMBL21155263
  Mrv1719007191917102D 0   0.00000     0.00000     0

 30 33  0  0  0  0              1 V2000 
    0.5403   -1.7315    0.0000 C   0  0  0  0  0  0  0  0  0  0  0  0
    7.7391   -0.1193    0.0000 O   0  0  0  0  0  0  0  0  0  0  0  0
    4.0924   -0.6528    0.0000 C   0  0  0  0  0  0  0  0  0  0  0  0
    6.1574   -2.6299    0.0000 F   0  0  0  0  0  0  0  0  0  0  0  0
    2.6362   -1.3599    0.0000 C   0  0  0  0  0  0  0  0  0  0  0  0
    2.6362   -0.5398    0.0000 C   0  0  0  0  0  0  0  0  0  0  0  0
    1.9081   -0.1130    0.0000 C   0  0  0  0  0  0  0  0  0  0  0  0
    1.1800   -0.5356    0.0000 C   0  0  0  0  0  0  0  0  0  0  0  0
    6.8918   -0.5356    0.0000 C   0  0  0  0  0  0  0  0  0  0  0  0
    6.0884   -0.1507    0.0000 C   0  0  0  0  0  0  0  0  0  0  0  0
    5.4356   -0.5398    0.0000 C   0  0  0  0  0  0  0  0  0  0  0  0
    5.4356   -1.3599    0.0000 C   0  0  0  0  0  0  0  0  0  0  0  0
    1.1800   -1.3599    0.0000 C   0  0  0  0  0  0  0  0  0  0  0  0
    6.8918   -1.3558    0.0000 C   0  0  0  0  0  0  0  0  0  0  0  0
    6.1637   -1.7909    0.0000 C   0  0  0  0  0  0  0  0  0  0  0  0
    4.0840   -1.3181    0.0000 C   0  0  0  0  0  0  0  0  0  0  0  0
    1.9206   -1.7826    0.0000 C   0  0  0  0  0  0  0  0  0  0  0  0
    4.4596   -2.5829    0.0000 C   0  0  0  0  0  0  0  0  0  0  0  0
    4.3435   -3.4145    0.0000 C   0  0  0  0  0  0  0  0  0  0  0  0
    5.1594   -3.5149    0.0000 C   0  0  0  0  0  0  0  0  0  0  0  0
    5.2724   -2.7241    0.0000 C   0  0  0  0  0  0  0  0  0  0  0  0
    3.6258   -2.5672    0.0000 C   0  0  0  0  0  0  0  0  0  0  0  0
    3.1886   -3.3078    0.0000 O   0  0  0  0  0  0  0  0  0  0  0  0
    4.7138   -1.7889    0.0000 N   0  0  0  0  0  0  0  0  0  0  0  0
    3.3580   -1.7889    0.0000 N   0  0  0  0  0  0  0  0  0  0  0  0
    0.5389   -0.1665    0.0000 C   0  0  0  0  0  0  0  0  0  0  0  0
   -0.1013   -1.3633    0.0000 F   0  0  0  0  0  0  0  0  0  0  0  0
    0.5423   -2.4713    0.0000 F   0  0  0  0  0  0  0  0  0  0  0  0
   -0.0994   -2.1031    0.0000 F   0  0  0  0  0  0  0  0  0  0  0  0
   -0.1022    0.2026    0.0000 N   0  0  0  0  0  0  0  0  0  0  0  0
  5  6  1  0  0  0  0
  6  7  2  0  0  0  0
  7  8  1  0  0  0  0
  2  9  1  0  0  0  0
  9 10  1  0  0  0  0
 10 11  2  0  0  0  0
 11 12  1  0  0  0  0
  8 13  2  0  0  0  0
  9 14  2  0  0  0  0
 14 15  1  0  0  0  0
 12 15  2  0  0  0  0
  4 15  1  0  0  0  0
  3 16  2  0  0  0  0
  5 17  2  0  0  0  0
 13 17  1  0  0  0  0
 18 19  1  0  0  0  0
 19 20  1  0  0  0  0
 20 21  1  0  0  0  0
 18 21  1  0  0  0  0
 18 22  1  0  0  0  0
 22 23  2  0  0  0  0
 12 24  1  0  0  0  0
 16 24  1  0  0  0  0
 18 24  1  0  0  0  0
  5 25  1  0  0  0  0
 16 25  1  0  0  0  0
 22 25  1  0  0  0  0
  8 26  1  0  0  0  0
 13  1  1  0  0  0  0
 26 30  3  0  0  0  0
  1 27  1  0  0  0  0
  1 28  1  0  0  0  0
  1 29  1  0  0  0  0
M  END
> <ID>
SCHEMBL21155263

> <InChIKey>
CRZQHMUROZIFNG-UHFFFAOYSA-N

> <MW>
417.364

> <Series_Name>
Series_1

$$$$
SCHEMBL21155264
  Mrv1719007191917102D 0   0.00000     0.00000     0

 32 35  0  0  0  0              1 V2000 
    0.5717   -0.8850    0.0000 C   0  0  0  0  0  0  0  0  0  0  0  0
    0.5496   -2.4294    0.0000 C   0  0  0  0  0  0  0  0  0  0  0  0
    4.0752   -1.3751    0.0000 C   0  0  0  0  0  0  0  0  0  0  0  0
    2.6169   -2.0793    0.0000 C   0  0  0  0  0  0  0  0  0  0  0  0
    2.6252   -1.2626    0.0000 C   0  0  0  0  0  0  0  0  0  0  0  0
    1.9501   -0.8626    0.0000 C   0  0  0  0  0  0  0  0  0  0  0  0
    1.1751   -1.2584    0.0000 C   0  0  0  0  0  0  0  0  0  0  0  0
    6.8546   -1.2501    0.0000 C   0  0  0  0  0  0  0  0  0  0  0  0
    6.1003   -0.8501    0.0000 C   0  0  0  0  0  0  0  0  0  0  0  0
    5.4128   -1.2626    0.0000 C   0  0  0  0  0  0  0  0  0  0  0  0
    5.4128   -2.0793    0.0000 C   0  0  0  0  0  0  0  0  0  0  0  0
    6.8629   -2.0750    0.0000 C   0  0  0  0  0  0  0  0  0  0  0  0
    6.1253   -2.5002    0.0000 C   0  0  0  0  0  0  0  0  0  0  0  0
    1.1668   -2.0793    0.0000 C   0  0  0  0  0  0  0  0  0  0  0  0
    4.0669   -2.0376    0.0000 C   0  0  0  0  0  0  0  0  0  0  0  0
    1.8876   -2.5002    0.0000 C   0  0  0  0  0  0  0  0  0  0  0  0
    4.4377   -3.2939    0.0000 C   0  0  0  0  0  0  0  0  0  0  0  0
    5.2628   -3.4377    0.0000 C   0  0  0  0  0  0  0  0  0  0  0  0
    5.1128   -4.2503    0.0000 C   0  0  0  0  0  0  0  0  0  0  0  0
    4.3127   -4.1127    0.0000 C   0  0  0  0  0  0  0  0  0  0  0  0
    3.6107   -3.2814    0.0000 C   0  0  0  0  0  0  0  0  0  0  0  0
    3.1752   -4.0190    0.0000 O   0  0  0  0  0  0  0  0  0  0  0  0
    7.1504   -0.1187    0.0000 O   0  0  0  0  0  0  0  0  0  0  0  0
    7.9880   -1.5563    0.0000 O   0  0  0  0  0  0  0  0  0  0  0  0
    4.6940   -2.5064    0.0000 N   0  0  0  0  0  0  0  0  0  0  0  0
    3.3439   -2.5064    0.0000 N   0  0  0  0  0  0  0  0  0  0  0  0
    7.5754   -0.8438    0.0000 S   0  0  0  0  0  0  0  0  0  0  0  0
    8.1885   -0.4866    0.0000 C   0  0  0  0  0  0  0  0  0  0  0  0
   -0.0621   -2.0700    0.0000 F   0  0  0  0  0  0  0  0  0  0  0  0
    0.5441   -3.1389    0.0000 F   0  0  0  0  0  0  0  0  0  0  0  0
   -0.0676   -2.7794    0.0000 F   0  0  0  0  0  0  0  0  0  0  0  0
   -0.0316   -0.5115    0.0000 N   0  0  0  0  0  0  0  0  0  0  0  0
  4  5  1  0  0  0  0
  5  6  2  0  0  0  0
  6  7  1  0  0  0  0
  8  9  1  0  0  0  0
  9 10  2  0  0  0  0
 10 11  1  0  0  0  0
  8 12  2  0  0  0  0
 12 13  1  0  0  0  0
 11 13  2  0  0  0  0
  7 14  2  0  0  0  0
  3 15  2  0  0  0  0
  4 16  2  0  0  0  0
 14 16  1  0  0  0  0
 17 18  1  0  0  0  0
 18 19  1  0  0  0  0
 19 20  1  0  0  0  0
 17 20  1  0  0  0  0
 17 21  1  0  0  0  0
 21 22  2  0  0  0  0
 11 25  1  0  0  0  0
 15 25  1  0  0  0  0
 17 25  1  0  0  0  0
  4 26  1  0  0  0  0
 15 26  1  0  0  0  0
 21 26  1  0  0  0  0
  8 27  1  0  0  0  0
 23 27  2  0  0  0  0
 24 27  2  0  0  0  0
 27 28  1  0  0  0  0
  7  1  1  0  0  0  0
 14  2  1  0  0  0  0
  1 32  3  0  0  0  0
  2 29  1  0  0  0  0
  2 30  1  0  0  0  0
  2 31  1  0  0  0  0
M  END
> <ID>
SCHEMBL21155264

> <InChIKey>
NSMQYNJUOHNXBE-UHFFFAOYSA-N

> <MW>
461.46

> <Series_Name>
Series_1

$$$$
SCHEMBL21155267
  Mrv1719007191917102D 0   0.00000     0.00000     0

 30 33  0  0  0  0              1 V2000 
    8.3784   -0.5283    0.0000 O   0  0  0  0  0  0  0  0  0  0  0  0
    0.5284   -1.7184    0.0000 C   0  0  0  0  0  0  0  0  0  0  0  0
    4.0524   -0.6464    0.0000 C   0  0  0  0  0  0  0  0  0  0  0  0
    2.6105   -1.3466    0.0000 C   0  0  0  0  0  0  0  0  0  0  0  0
    2.6105   -0.5345    0.0000 C   0  0  0  0  0  0  0  0  0  0  0  0
    1.8895   -0.1119    0.0000 C   0  0  0  0  0  0  0  0  0  0  0  0
    1.1685   -0.5304    0.0000 C   0  0  0  0  0  0  0  0  0  0  0  0
    6.8245   -0.5138    0.0000 C   0  0  0  0  0  0  0  0  0  0  0  0
    6.0911   -0.1119    0.0000 C   0  0  0  0  0  0  0  0  0  0  0  0
    5.3826   -0.5345    0.0000 C   0  0  0  0  0  0  0  0  0  0  0  0
    5.3826   -1.3466    0.0000 C   0  0  0  0  0  0  0  0  0  0  0  0
    7.5331   -0.1119    0.0000 C   0  0  0  0  0  0  0  0  0  0  0  0
    6.8245   -1.3425    0.0000 C   0  0  0  0  0  0  0  0  0  0  0  0
    6.1160   -1.7652    0.0000 C   0  0  0  0  0  0  0  0  0  0  0  0
    1.1685   -1.3466    0.0000 C   0  0  0  0  0  0  0  0  0  0  0  0
    4.0441   -1.3053    0.0000 C   0  0  0  0  0  0  0  0  0  0  0  0
    1.9019   -1.7652    0.0000 C   0  0  0  0  0  0  0  0  0  0  0  0
    4.4160   -2.5576    0.0000 C   0  0  0  0  0  0  0  0  0  0  0  0
    4.3011   -3.3812    0.0000 C   0  0  0  0  0  0  0  0  0  0  0  0
    5.1091   -3.4806    0.0000 C   0  0  0  0  0  0  0  0  0  0  0  0
    5.2334   -2.6975    0.0000 C   0  0  0  0  0  0  0  0  0  0  0  0
    3.5905   -2.5421    0.0000 C   0  0  0  0  0  0  0  0  0  0  0  0
    3.1574   -3.2755    0.0000 O   0  0  0  0  0  0  0  0  0  0  0  0
    4.6678   -1.7714    0.0000 N   0  0  0  0  0  0  0  0  0  0  0  0
    3.3253   -1.7714    0.0000 N   0  0  0  0  0  0  0  0  0  0  0  0
    0.5270   -0.1610    0.0000 C   0  0  0  0  0  0  0  0  0  0  0  0
   -0.1137   -1.3500    0.0000 F   0  0  0  0  0  0  0  0  0  0  0  0
    0.5302   -2.4587    0.0000 F   0  0  0  0  0  0  0  0  0  0  0  0
   -0.1118   -2.0902    0.0000 F   0  0  0  0  0  0  0  0  0  0  0  0
   -0.1145    0.2084    0.0000 N   0  0  0  0  0  0  0  0  0  0  0  0
  4  5  1  0  0  0  0
  5  6  2  0  0  0  0
  6  7  1  0  0  0  0
  8  9  1  0  0  0  0
  9 10  2  0  0  0  0
 10 11  1  0  0  0  0
  1 12  1  0  0  0  0
  8 12  1  0  0  0  0
  8 13  2  0  0  0  0
 13 14  1  0  0  0  0
 11 14  2  0  0  0  0
  7 15  2  0  0  0  0
  3 16  2  0  0  0  0
  4 17  2  0  0  0  0
 15 17  1  0  0  0  0
 18 19  1  0  0  0  0
 19 20  1  0  0  0  0
 20 21  1  0  0  0  0
 18 21  1  0  0  0  0
 18 22  1  0  0  0  0
 22 23  2  0  0  0  0
 11 24  1  0  0  0  0
 16 24  1  0  0  0  0
 18 24  1  0  0  0  0
  4 25  1  0  0  0  0
 16 25  1  0  0  0  0
 22 25  1  0  0  0  0
  7 26  1  0  0  0  0
 15  2  1  0  0  0  0
 26 30  3  0  0  0  0
  2 27  1  0  0  0  0
  2 28  1  0  0  0  0
  2 29  1  0  0  0  0
M  END
> <ID>
SCHEMBL21155267

> <InChIKey>
KKBKKZQNRRUXAU-UHFFFAOYSA-N

> <MW>
413.4

> <Series_Name>
Series_1

$$$$
SCHEMBL21155268
  Mrv1719007191917102D 0   0.00000     0.00000     0

 33 36  0  0  0  0              1 V2000 
    8.9534   -0.1180    0.0000 O   0  0  0  0  0  0  0  0  0  0  0  0
    9.8722   -1.4094    0.0000 N   0  0  0  0  0  0  0  0  0  0  0  0
    0.5144   -2.5429    0.0000 C   0  0  0  0  0  0  0  0  0  0  0  0
    4.0482   -1.4777    0.0000 C   0  0  0  0  0  0  0  0  0  0  0  0
    9.0072   -0.9562    0.0000 C   0  0  0  0  0  0  0  0  0  0  0  0
    2.5995   -2.1773    0.0000 C   0  0  0  0  0  0  0  0  0  0  0  0
    2.6078   -1.3660    0.0000 C   0  0  0  0  0  0  0  0  0  0  0  0
    1.9372   -0.9686    0.0000 C   0  0  0  0  0  0  0  0  0  0  0  0
    1.1673   -1.3618    0.0000 C   0  0  0  0  0  0  0  0  0  0  0  0
    6.8092   -1.3535    0.0000 C   0  0  0  0  0  0  0  0  0  0  0  0
    6.0600   -0.9562    0.0000 C   0  0  0  0  0  0  0  0  0  0  0  0
    5.3770   -1.3660    0.0000 C   0  0  0  0  0  0  0  0  0  0  0  0
    5.3770   -2.1773    0.0000 C   0  0  0  0  0  0  0  0  0  0  0  0
    8.2580   -1.3535    0.0000 C   0  0  0  0  0  0  0  0  0  0  0  0
    7.5252   -0.9438    0.0000 C   0  0  0  0  0  0  0  0  0  0  0  0
    6.8175   -2.1732    0.0000 C   0  0  0  0  0  0  0  0  0  0  0  0
    6.0972   -2.5953    0.0000 C   0  0  0  0  0  0  0  0  0  0  0  0
    1.1590   -2.1773    0.0000 C   0  0  0  0  0  0  0  0  0  0  0  0
    4.0400   -2.1359    0.0000 C   0  0  0  0  0  0  0  0  0  0  0  0
    1.8752   -2.5953    0.0000 C   0  0  0  0  0  0  0  0  0  0  0  0
    4.4053   -3.3808    0.0000 C   0  0  0  0  0  0  0  0  0  0  0  0
    4.2842   -4.1973    0.0000 C   0  0  0  0  0  0  0  0  0  0  0  0
    5.0417   -4.3339    0.0000 C   0  0  0  0  0  0  0  0  0  0  0  0
    5.2279   -3.5267    0.0000 C   0  0  0  0  0  0  0  0  0  0  0  0
    3.5867   -3.3715    0.0000 C   0  0  0  0  0  0  0  0  0  0  0  0
    3.1542   -4.1041    0.0000 O   0  0  0  0  0  0  0  0  0  0  0  0
    4.6630   -2.6016    0.0000 N   0  0  0  0  0  0  0  0  0  0  0  0
    3.3218   -2.6016    0.0000 N   0  0  0  0  0  0  0  0  0  0  0  0
    0.5372   -0.9718    0.0000 C   0  0  0  0  0  0  0  0  0  0  0  0
   -0.1244   -2.1676    0.0000 F   0  0  0  0  0  0  0  0  0  0  0  0
    0.5088   -3.2841    0.0000 F   0  0  0  0  0  0  0  0  0  0  0  0
   -0.1301   -2.9086    0.0000 F   0  0  0  0  0  0  0  0  0  0  0  0
   -0.0929   -0.5817    0.0000 N   0  0  0  0  0  0  0  0  0  0  0  0
  1  5  2  0  0  0  0
  2  5  1  0  0  0  0
  6  7  1  0  0  0  0
  7  8  2  0  0  0  0
  8  9  1  0  0  0  0
 10 11  1  0  0  0  0
 11 12  2  0  0  0  0
 12 13  1  0  0  0  0
  5 14  1  0  0  0  0
 14 15  2  0  0  0  0
 10 15  1  0  0  0  0
 10 16  2  0  0  0  0
 16 17  1  0  0  0  0
 13 17  2  0  0  0  0
  9 18  2  0  0  0  0
  4 19  2  0  0  0  0
  6 20  2  0  0  0  0
 18 20  1  0  0  0  0
 21 22  1  0  0  0  0
 22 23  1  0  0  0  0
 23 24  1  0  0  0  0
 21 24  1  0  0  0  0
 21 25  1  0  0  0  0
 25 26  2  0  0  0  0
 13 27  1  0  0  0  0
 19 27  1  0  0  0  0
 21 27  1  0  0  0  0
  6 28  1  0  0  0  0
 19 28  1  0  0  0  0
 25 28  1  0  0  0  0
  9 29  1  0  0  0  0
 18  3  1  0  0  0  0
 29 33  3  0  0  0  0
  3 30  1  0  0  0  0
  3 31  1  0  0  0  0
  3 32  1  0  0  0  0
M  END
> <ID>
SCHEMBL21155268

> <InChIKey>
OCDUAZHORXAMCF-BJMVGYQFSA-N

> <MW>
452.437

> <Series_Name>
Series_1

$$$$
SCHEMBL21155274
  Mrv1719007191917112D 0   0.00000     0.00000     0

 32 35  0  0  0  0              1 V2000 
    9.9467   -0.5352    0.0000 O   0  0  0  0  0  0  0  0  0  0  0  0
    0.5289   -1.7536    0.0000 C   0  0  0  0  0  0  0  0  0  0  0  0
    4.1046   -0.6548    0.0000 C   0  0  0  0  0  0  0  0  0  0  0  0
    9.0654   -0.1259    0.0000 C   0  0  0  0  0  0  0  0  0  0  0  0
    8.3603   -0.5414    0.0000 C   0  0  0  0  0  0  0  0  0  0  0  0
    7.6300   -0.1133    0.0000 C   0  0  0  0  0  0  0  0  0  0  0  0
    6.9040   -0.5372    0.0000 C   0  0  0  0  0  0  0  0  0  0  0  0
    6.9124   -1.3598    0.0000 C   0  0  0  0  0  0  0  0  0  0  0  0
    6.1946   -1.7880    0.0000 C   0  0  0  0  0  0  0  0  0  0  0  0
    5.4519   -1.3640    0.0000 C   0  0  0  0  0  0  0  0  0  0  0  0
    2.6357   -1.3640    0.0000 C   0  0  0  0  0  0  0  0  0  0  0  0
    2.6441   -0.5540    0.0000 C   0  0  0  0  0  0  0  0  0  0  0  0
    1.9516   -0.1385    0.0000 C   0  0  0  0  0  0  0  0  0  0  0  0
    1.1835   -0.5372    0.0000 C   0  0  0  0  0  0  0  0  0  0  0  0
    6.1317   -0.1385    0.0000 C   0  0  0  0  0  0  0  0  0  0  0  0
    5.4519   -0.5414    0.0000 C   0  0  0  0  0  0  0  0  0  0  0  0
    1.1835   -1.3766    0.0000 C   0  0  0  0  0  0  0  0  0  0  0  0
    4.0962   -1.3346    0.0000 C   0  0  0  0  0  0  0  0  0  0  0  0
    1.9138   -1.8006    0.0000 C   0  0  0  0  0  0  0  0  0  0  0  0
    4.4698   -2.5968    0.0000 C   0  0  0  0  0  0  0  0  0  0  0  0
    5.2881   -2.7448    0.0000 C   0  0  0  0  0  0  0  0  0  0  0  0
    5.1496   -3.5506    0.0000 C   0  0  0  0  0  0  0  0  0  0  0  0
    4.3439   -3.4121    0.0000 C   0  0  0  0  0  0  0  0  0  0  0  0
    3.6366   -2.5748    0.0000 C   0  0  0  0  0  0  0  0  0  0  0  0
    3.1981   -3.3177    0.0000 O   0  0  0  0  0  0  0  0  0  0  0  0
    4.7278   -1.7943    0.0000 N   0  0  0  0  0  0  0  0  0  0  0  0
    3.3680   -1.7943    0.0000 N   0  0  0  0  0  0  0  0  0  0  0  0
    0.5380   -0.1450    0.0000 C   0  0  0  0  0  0  0  0  0  0  0  0
   -0.1250   -1.3751    0.0000 F   0  0  0  0  0  0  0  0  0  0  0  0
    0.5280   -2.5090    0.0000 F   0  0  0  0  0  0  0  0  0  0  0  0
   -0.1258   -2.1306    0.0000 F   0  0  0  0  0  0  0  0  0  0  0  0
   -0.1077    0.2472    0.0000 N   0  0  0  0  0  0  0  0  0  0  0  0
  1  4  1  0  0  0  0
  4  5  1  0  0  0  0
  5  6  2  0  0  0  0
  6  7  1  0  0  0  0
  7  8  2  0  0  0  0
  8  9  1  0  0  0  0
  9 10  2  0  0  0  0
 11 12  1  0  0  0  0
 12 13  2  0  0  0  0
 13 14  1  0  0  0  0
  7 15  1  0  0  0  0
 15 16  2  0  0  0  0
 10 16  1  0  0  0  0
 14 17  2  0  0  0  0
  3 18  2  0  0  0  0
 11 19  2  0  0  0  0
 17 19  1  0  0  0  0
 20 21  1  0  0  0  0
 21 22  1  0  0  0  0
 22 23  1  0  0  0  0
 20 23  1  0  0  0  0
 20 24  1  0  0  0  0
 24 25  2  0  0  0  0
 10 26  1  0  0  0  0
 18 26  1  0  0  0  0
 20 26  1  0  0  0  0
 11 27  1  0  0  0  0
 18 27  1  0  0  0  0
 24 27  1  0  0  0  0
 14 28  1  0  0  0  0
 17  2  1  0  0  0  0
 28 32  3  0  0  0  0
  2 29  1  0  0  0  0
  2 30  1  0  0  0  0
  2 31  1  0  0  0  0
M  END
> <ID>
SCHEMBL21155274

> <InChIKey>
TXGUZUBNWKRTSO-DUXPYHPUSA-N

> <MW>
439.438

> <Series_Name>
Series_1

$$$$
SCHEMBL21155277
  Mrv1719007191917112D 0   0.00000     0.00000     0

 33 36  0  0  0  0              1 V2000 
    9.0323   -0.1190    0.0000 O   0  0  0  0  0  0  0  0  0  0  0  0
    9.8966   -1.3718    0.0000 O   0  0  0  0  0  0  0  0  0  0  0  0
    0.5303   -2.5724    0.0000 C   0  0  0  0  0  0  0  0  0  0  0  0
    4.0840   -1.4908    0.0000 C   0  0  0  0  0  0  0  0  0  0  0  0
    8.9946   -0.9687    0.0000 C   0  0  0  0  0  0  0  0  0  0  0  0
    2.6308   -2.1964    0.0000 C   0  0  0  0  0  0  0  0  0  0  0  0
    2.6308   -1.3781    0.0000 C   0  0  0  0  0  0  0  0  0  0  0  0
    1.9292   -0.9646    0.0000 C   0  0  0  0  0  0  0  0  0  0  0  0
    1.1775   -1.3739    0.0000 C   0  0  0  0  0  0  0  0  0  0  0  0
    6.8776   -1.3572    0.0000 C   0  0  0  0  0  0  0  0  0  0  0  0
    6.1384   -0.9521    0.0000 C   0  0  0  0  0  0  0  0  0  0  0  0
    5.4243   -1.3781    0.0000 C   0  0  0  0  0  0  0  0  0  0  0  0
    5.4243   -2.1964    0.0000 C   0  0  0  0  0  0  0  0  0  0  0  0
    8.3056   -1.3655    0.0000 C   0  0  0  0  0  0  0  0  0  0  0  0
    7.5917   -0.9521    0.0000 C   0  0  0  0  0  0  0  0  0  0  0  0
    6.8776   -2.1922    0.0000 C   0  0  0  0  0  0  0  0  0  0  0  0
    6.1635   -2.6182    0.0000 C   0  0  0  0  0  0  0  0  0  0  0  0
    1.1775   -2.1964    0.0000 C   0  0  0  0  0  0  0  0  0  0  0  0
    4.0756   -2.1547    0.0000 C   0  0  0  0  0  0  0  0  0  0  0  0
    1.9167   -2.6182    0.0000 C   0  0  0  0  0  0  0  0  0  0  0  0
    4.4410   -3.4200    0.0000 C   0  0  0  0  0  0  0  0  0  0  0  0
    4.2343   -4.2217    0.0000 C   0  0  0  0  0  0  0  0  0  0  0  0
    5.0361   -4.4222    0.0000 C   0  0  0  0  0  0  0  0  0  0  0  0
    5.2490   -3.6455    0.0000 C   0  0  0  0  0  0  0  0  0  0  0  0
    3.6183   -3.4012    0.0000 C   0  0  0  0  0  0  0  0  0  0  0  0
    3.1820   -4.1404    0.0000 O   0  0  0  0  0  0  0  0  0  0  0  0
    4.7040   -2.6245    0.0000 N   0  0  0  0  0  0  0  0  0  0  0  0
    3.3511   -2.6245    0.0000 N   0  0  0  0  0  0  0  0  0  0  0  0
    0.5341   -0.9915    0.0000 C   0  0  0  0  0  0  0  0  0  0  0  0
   -0.1189   -2.1998    0.0000 F   0  0  0  0  0  0  0  0  0  0  0  0
    0.5322   -3.3210    0.0000 F   0  0  0  0  0  0  0  0  0  0  0  0
   -0.1170   -2.9484    0.0000 F   0  0  0  0  0  0  0  0  0  0  0  0
   -0.1095   -0.6091    0.0000 N   0  0  0  0  0  0  0  0  0  0  0  0
  1  5  2  0  0  0  0
  2  5  1  0  0  0  0
  6  7  1  0  0  0  0
  7  8  2  0  0  0  0
  8  9  1  0  0  0  0
 10 11  1  0  0  0  0
 11 12  2  0  0  0  0
 12 13  1  0  0  0  0
  5 14  1  0  0  0  0
 14 15  1  0  0  0  0
 10 15  1  0  0  0  0
 10 16  2  0  0  0  0
 16 17  1  0  0  0  0
 13 17  2  0  0  0  0
  9 18  2  0  0  0  0
  4 19  2  0  0  0  0
  6 20  2  0  0  0  0
 18 20  1  0  0  0  0
 21 22  1  0  0  0  0
 22 23  1  0  0  0  0
 23 24  1  0  0  0  0
 21 24  1  0  0  0  0
 21 25  1  0  0  0  0
 25 26  2  0  0  0  0
 13 27  1  0  0  0  0
 19 27  1  0  0  0  0
 21 27  1  0  0  0  0
  6 28  1  0  0  0  0
 19 28  1  0  0  0  0
 25 28  1  0  0  0  0
  9 29  1  0  0  0  0
 18  3  1  0  0  0  0
 29 33  3  0  0  0  0
  3 30  1  0  0  0  0
  3 31  1  0  0  0  0
  3 32  1  0  0  0  0
M  END
> <ID>
SCHEMBL21155277

> <InChIKey>
UJTDGUSYSLWVBQ-UHFFFAOYSA-N

> <MW>
455.437

> <Series_Name>
Series_1

$$$$
SCHEMBL21155288
  Mrv1719007191917122D 0   0.00000     0.00000     0

 33 36  0  0  0  0              1 V2000 
    8.9846   -0.1184    0.0000 O   0  0  0  0  0  0  0  0  0  0  0  0
    9.9067   -1.4206    0.0000 N   0  0  0  0  0  0  0  0  0  0  0  0
    0.5262   -2.5656    0.0000 C   0  0  0  0  0  0  0  0  0  0  0  0
    4.0624   -1.4954    0.0000 C   0  0  0  0  0  0  0  0  0  0  0  0
    9.0386   -0.9720    0.0000 C   0  0  0  0  0  0  0  0  0  0  0  0
    2.6086   -2.1848    0.0000 C   0  0  0  0  0  0  0  0  0  0  0  0
    2.6169   -1.3832    0.0000 C   0  0  0  0  0  0  0  0  0  0  0  0
    1.9315   -0.9720    0.0000 C   0  0  0  0  0  0  0  0  0  0  0  0
    1.1713   -1.3666    0.0000 C   0  0  0  0  0  0  0  0  0  0  0  0
    6.8330   -1.3666    0.0000 C   0  0  0  0  0  0  0  0  0  0  0  0
    6.1309   -0.9595    0.0000 C   0  0  0  0  0  0  0  0  0  0  0  0
    5.3958   -1.3707    0.0000 C   0  0  0  0  0  0  0  0  0  0  0  0
    5.3958   -2.1973    0.0000 C   0  0  0  0  0  0  0  0  0  0  0  0
    8.2742   -1.3707    0.0000 C   0  0  0  0  0  0  0  0  0  0  0  0
    7.4893   -0.9844    0.0000 C   0  0  0  0  0  0  0  0  0  0  0  0
    6.8413   -2.1807    0.0000 C   0  0  0  0  0  0  0  0  0  0  0  0
    6.1185   -2.6169    0.0000 C   0  0  0  0  0  0  0  0  0  0  0  0
    1.1713   -2.1973    0.0000 C   0  0  0  0  0  0  0  0  0  0  0  0
    4.0541   -2.1558    0.0000 C   0  0  0  0  0  0  0  0  0  0  0  0
    1.8817   -2.6169    0.0000 C   0  0  0  0  0  0  0  0  0  0  0  0
    4.4176   -3.4050    0.0000 C   0  0  0  0  0  0  0  0  0  0  0  0
    4.2120   -4.1995    0.0000 C   0  0  0  0  0  0  0  0  0  0  0  0
    4.9845   -4.4238    0.0000 C   0  0  0  0  0  0  0  0  0  0  0  0
    5.2213   -3.6262    0.0000 C   0  0  0  0  0  0  0  0  0  0  0  0
    3.5992   -3.3832    0.0000 C   0  0  0  0  0  0  0  0  0  0  0  0
    3.1652   -4.1310    0.0000 O   0  0  0  0  0  0  0  0  0  0  0  0
    4.6792   -2.6106    0.0000 N   0  0  0  0  0  0  0  0  0  0  0  0
    3.3334   -2.6106    0.0000 N   0  0  0  0  0  0  0  0  0  0  0  0
    0.5365   -0.9808    0.0000 C   0  0  0  0  0  0  0  0  0  0  0  0
   -0.1154   -2.1910    0.0000 F   0  0  0  0  0  0  0  0  0  0  0  0
    0.5225   -3.3085    0.0000 F   0  0  0  0  0  0  0  0  0  0  0  0
   -0.1191   -2.9339    0.0000 F   0  0  0  0  0  0  0  0  0  0  0  0
   -0.0984   -0.5950    0.0000 N   0  0  0  0  0  0  0  0  0  0  0  0
  1  5  2  0  0  0  0
  2  5  1  0  0  0  0
  6  7  1  0  0  0  0
  7  8  2  0  0  0  0
  8  9  1  0  0  0  0
 10 11  1  0  0  0  0
 11 12  2  0  0  0  0
 12 13  1  0  0  0  0
  5 14  1  0  0  0  0
 14 15  1  0  0  0  0
 10 15  1  0  0  0  0
 10 16  2  0  0  0  0
 16 17  1  0  0  0  0
 13 17  2  0  0  0  0
  9 18  2  0  0  0  0
  4 19  2  0  0  0  0
  6 20  2  0  0  0  0
 18 20  1  0  0  0  0
 21 22  1  0  0  0  0
 22 23  1  0  0  0  0
 23 24  1  0  0  0  0
 21 24  1  0  0  0  0
 21 25  1  0  0  0  0
 25 26  2  0  0  0  0
 13 27  1  0  0  0  0
 19 27  1  0  0  0  0
 21 27  1  0  0  0  0
  6 28  1  0  0  0  0
 19 28  1  0  0  0  0
 25 28  1  0  0  0  0
  9 29  1  0  0  0  0
 18  3  1  0  0  0  0
 29 33  3  0  0  0  0
  3 30  1  0  0  0  0
  3 31  1  0  0  0  0
  3 32  1  0  0  0  0
M  END
> <ID>
SCHEMBL21155288

> <InChIKey>
QWXGGMXXFRPKAN-UHFFFAOYSA-N

> <MW>
454.453

> <Series_Name>
Series_1

$$$$
SCHEMBL21155290
  Mrv1719007191917132D 0   0.00000     0.00000     0

 32 36  0  0  0  0              1 V2000 
    0.5164   -1.7305    0.0000 C   0  0  0  0  0  0  0  0  0  0  0  0
    4.0627   -0.6481    0.0000 C   0  0  0  0  0  0  0  0  0  0  0  0
    2.6170   -1.3500    0.0000 C   0  0  0  0  0  0  0  0  0  0  0  0
    2.6170   -0.5359    0.0000 C   0  0  0  0  0  0  0  0  0  0  0  0
    1.8942   -0.1122    0.0000 C   0  0  0  0  0  0  0  0  0  0  0  0
    1.1714   -0.5317    0.0000 C   0  0  0  0  0  0  0  0  0  0  0  0
    6.8417   -0.5317    0.0000 C   0  0  0  0  0  0  0  0  0  0  0  0
    6.1064   -0.1122    0.0000 C   0  0  0  0  0  0  0  0  0  0  0  0
    5.3961   -0.5359    0.0000 C   0  0  0  0  0  0  0  0  0  0  0  0
    5.3961   -1.3500    0.0000 C   0  0  0  0  0  0  0  0  0  0  0  0
    6.1314   -1.7696    0.0000 C   0  0  0  0  0  0  0  0  0  0  0  0
    6.8417   -1.3500    0.0000 C   0  0  0  0  0  0  0  0  0  0  0  0
    7.5520   -1.7820    0.0000 C   0  0  0  0  0  0  0  0  0  0  0  0
    8.2748   -1.3459    0.0000 C   0  0  0  0  0  0  0  0  0  0  0  0
    8.2748   -0.5359    0.0000 C   0  0  0  0  0  0  0  0  0  0  0  0
    7.5520   -0.1122    0.0000 C   0  0  0  0  0  0  0  0  0  0  0  0
    1.1714   -1.3500    0.0000 C   0  0  0  0  0  0  0  0  0  0  0  0
    4.0543   -1.3085    0.0000 C   0  0  0  0  0  0  0  0  0  0  0  0
    1.9067   -1.7696    0.0000 C   0  0  0  0  0  0  0  0  0  0  0  0
    4.4178   -2.5672    0.0000 C   0  0  0  0  0  0  0  0  0  0  0  0
    4.2122   -3.3647    0.0000 C   0  0  0  0  0  0  0  0  0  0  0  0
    5.0222   -3.5517    0.0000 C   0  0  0  0  0  0  0  0  0  0  0  0
    5.2216   -2.7915    0.0000 C   0  0  0  0  0  0  0  0  0  0  0  0
    3.5995   -2.5485    0.0000 C   0  0  0  0  0  0  0  0  0  0  0  0
    3.1654   -3.2838    0.0000 O   0  0  0  0  0  0  0  0  0  0  0  0
    4.6795   -1.7758    0.0000 N   0  0  0  0  0  0  0  0  0  0  0  0
    3.3336   -1.7758    0.0000 N   0  0  0  0  0  0  0  0  0  0  0  0
    0.5150   -0.1537    0.0000 C   0  0  0  0  0  0  0  0  0  0  0  0
   -0.1407   -1.3535    0.0000 F   0  0  0  0  0  0  0  0  0  0  0  0
    0.5184   -2.4880    0.0000 F   0  0  0  0  0  0  0  0  0  0  0  0
   -0.1385   -2.1111    0.0000 F   0  0  0  0  0  0  0  0  0  0  0  0
   -0.1414    0.2243    0.0000 N   0  0  0  0  0  0  0  0  0  0  0  0
  3  4  1  0  0  0  0
  4  5  2  0  0  0  0
  5  6  1  0  0  0  0
  7  8  1  0  0  0  0
  8  9  2  0  0  0  0
  9 10  1  0  0  0  0
 10 11  2  0  0  0  0
 11 12  1  0  0  0  0
  7 12  2  0  0  0  0
 12 13  1  0  0  0  0
 13 14  2  0  0  0  0
 14 15  1  0  0  0  0
 15 16  2  0  0  0  0
  7 16  1  0  0  0  0
  6 17  2  0  0  0  0
  2 18  2  0  0  0  0
  3 19  2  0  0  0  0
 17 19  1  0  0  0  0
 20 21  1  0  0  0  0
 21 22  1  0  0  0  0
 22 23  1  0  0  0  0
 20 23  1  0  0  0  0
 20 24  1  0  0  0  0
 24 25  2  0  0  0  0
 10 26  1  0  0  0  0
 18 26  1  0  0  0  0
 20 26  1  0  0  0  0
  3 27  1  0  0  0  0
 18 27  1  0  0  0  0
 24 27  1  0  0  0  0
  6 28  1  0  0  0  0
 17  1  1  0  0  0  0
 28 32  3  0  0  0  0
  1 29  1  0  0  0  0
  1 30  1  0  0  0  0
  1 31  1  0  0  0  0
M  END
> <ID>
SCHEMBL21155290

> <InChIKey>
CRWHLGUODCIOSP-UHFFFAOYSA-N

> <MW>
433.434

> <Series_Name>
Series_1

$$$$
SCHEMBL21155589
  Mrv1719007191918382D 0   0.00000     0.00000     0

 34 38  0  0  0  0              1 V2000 
    0.5211   -2.9083    0.0000 C   0  0  0  0  0  0  0  0  0  0  0  0
    4.1062   -1.8138    0.0000 C   0  0  0  0  0  0  0  0  0  0  0  0
    7.6330   -1.2638    0.0000 C   0  0  0  0  0  0  0  0  0  0  0  0
    8.4266   -1.6626    0.0000 C   0  0  0  0  0  0  0  0  0  0  0  0
    9.0941   -1.2596    0.0000 C   0  0  0  0  0  0  0  0  0  0  0  0
    9.0941   -0.4409    0.0000 C   0  0  0  0  0  0  0  0  0  0  0  0
    8.3132   -0.0378    0.0000 C   0  0  0  0  0  0  0  0  0  0  0  0
    7.6330   -0.4409    0.0000 C   0  0  0  0  0  0  0  0  0  0  0  0
    2.6450   -2.5234    0.0000 C   0  0  0  0  0  0  0  0  0  0  0  0
    2.6450   -1.7004    0.0000 C   0  0  0  0  0  0  0  0  0  0  0  0
    1.9145   -1.2722    0.0000 C   0  0  0  0  0  0  0  0  0  0  0  0
    1.1840   -1.6962    0.0000 C   0  0  0  0  0  0  0  0  0  0  0  0
    6.9151   -1.6962    0.0000 C   0  0  0  0  0  0  0  0  0  0  0  0
    6.1089   -1.3100    0.0000 C   0  0  0  0  0  0  0  0  0  0  0  0
    5.4540   -1.7004    0.0000 C   0  0  0  0  0  0  0  0  0  0  0  0
    5.4540   -2.5234    0.0000 C   0  0  0  0  0  0  0  0  0  0  0  0
    1.1840   -2.5234    0.0000 C   0  0  0  0  0  0  0  0  0  0  0  0
    6.9151   -2.5192    0.0000 C   0  0  0  0  0  0  0  0  0  0  0  0
    6.2223   -2.9348    0.0000 C   0  0  0  0  0  0  0  0  0  0  0  0
    4.0978   -2.4814    0.0000 C   0  0  0  0  0  0  0  0  0  0  0  0
    1.9272   -2.9474    0.0000 C   0  0  0  0  0  0  0  0  0  0  0  0
    4.4747   -3.7503    0.0000 C   0  0  0  0  0  0  0  0  0  0  0  0
    4.3581   -4.5849    0.0000 C   0  0  0  0  0  0  0  0  0  0  0  0
    5.1769   -4.6856    0.0000 C   0  0  0  0  0  0  0  0  0  0  0  0
    5.2903   -3.8921    0.0000 C   0  0  0  0  0  0  0  0  0  0  0  0
    3.6380   -3.7346    0.0000 C   0  0  0  0  0  0  0  0  0  0  0  0
    3.1993   -4.4778    0.0000 O   0  0  0  0  0  0  0  0  0  0  0  0
    4.7297   -2.9537    0.0000 N   0  0  0  0  0  0  0  0  0  0  0  0
    3.3694   -2.9537    0.0000 N   0  0  0  0  0  0  0  0  0  0  0  0
    0.5196   -1.3137    0.0000 C   0  0  0  0  0  0  0  0  0  0  0  0
   -0.1438   -2.5268    0.0000 F   0  0  0  0  0  0  0  0  0  0  0  0
    0.5231   -3.6749    0.0000 F   0  0  0  0  0  0  0  0  0  0  0  0
   -0.1419   -3.2934    0.0000 F   0  0  0  0  0  0  0  0  0  0  0  0
   -0.1447   -0.9311    0.0000 N   0  0  0  0  0  0  0  0  0  0  0  0
  3  4  2  0  0  0  0
  4  5  1  0  0  0  0
  5  6  2  0  0  0  0
  6  7  1  0  0  0  0
  7  8  2  0  0  0  0
  3  8  1  0  0  0  0
  9 10  1  0  0  0  0
 10 11  2  0  0  0  0
 11 12  1  0  0  0  0
  3 13  1  0  0  0  0
 13 14  1  0  0  0  0
 14 15  2  0  0  0  0
 15 16  1  0  0  0  0
 12 17  2  0  0  0  0
 13 18  2  0  0  0  0
 18 19  1  0  0  0  0
 16 19  2  0  0  0  0
  2 20  2  0  0  0  0
  9 21  2  0  0  0  0
 17 21  1  0  0  0  0
 22 23  1  0  0  0  0
 23 24  1  0  0  0  0
 24 25  1  0  0  0  0
 22 25  1  0  0  0  0
 22 26  1  0  0  0  0
 26 27  2  0  0  0  0
 16 28  1  0  0  0  0
 20 28  1  0  0  0  0
 22 28  1  0  0  0  0
  9 29  1  0  0  0  0
 20 29  1  0  0  0  0
 26 29  1  0  0  0  0
 12 30  1  0  0  0  0
 17  1  1  0  0  0  0
 30 34  3  0  0  0  0
  1 31  1  0  0  0  0
  1 32  1  0  0  0  0
  1 33  1  0  0  0  0
M  END
> <ID>
SCHEMBL21155589

> <InChIKey>
VMUYXBTUXVIYMA-UHFFFAOYSA-N

> <MW>
459.472

> <Series_Name>
Series_1

$$$$
SCHEMBL21155640
  Mrv1719007191918532D 0   0.00000     0.00000     0

 33 36  0  0  0  0              1 V2000 
    9.8491   -1.8370    0.0000 C   0  0  0  0  0  0  0  0  0  0  0  0
    4.0780   -0.6504    0.0000 C   0  0  0  0  0  0  0  0  0  0  0  0
    0.5265   -1.7429    0.0000 C   0  0  0  0  0  0  0  0  0  0  0  0
    2.6186   -1.3552    0.0000 C   0  0  0  0  0  0  0  0  0  0  0  0
    2.6269   -0.5379    0.0000 C   0  0  0  0  0  0  0  0  0  0  0  0
    1.8889   -0.1251    0.0000 C   0  0  0  0  0  0  0  0  0  0  0  0
    1.1800   -0.5337    0.0000 C   0  0  0  0  0  0  0  0  0  0  0  0
    1.1800   -1.3677    0.0000 C   0  0  0  0  0  0  0  0  0  0  0  0
    7.1136   -1.1384    0.0000 C   0  0  0  0  0  0  0  0  0  0  0  0
    6.4548   -0.5629    0.0000 C   0  0  0  0  0  0  0  0  0  0  0  0
    5.7167   -0.7756    0.0000 C   0  0  0  0  0  0  0  0  0  0  0  0
    5.4957   -1.5678    0.0000 C   0  0  0  0  0  0  0  0  0  0  0  0
    4.0697   -1.3260    0.0000 C   0  0  0  0  0  0  0  0  0  0  0  0
    9.3193   -1.3010    0.0000 C   0  0  0  0  0  0  0  0  0  0  0  0
    8.5063   -1.5136    0.0000 C   0  0  0  0  0  0  0  0  0  0  0  0
    7.9183   -0.9257    0.0000 C   0  0  0  0  0  0  0  0  0  0  0  0
    6.9051   -1.9264    0.0000 C   0  0  0  0  0  0  0  0  0  0  0  0
    6.0920   -2.1641    0.0000 C   0  0  0  0  0  0  0  0  0  0  0  0
    1.9014   -1.7888    0.0000 C   0  0  0  0  0  0  0  0  0  0  0  0
    4.4439   -2.5769    0.0000 C   0  0  0  0  0  0  0  0  0  0  0  0
    5.2664   -2.7270    0.0000 C   0  0  0  0  0  0  0  0  0  0  0  0
    5.1413   -3.5151    0.0000 C   0  0  0  0  0  0  0  0  0  0  0  0
    4.3157   -3.3900    0.0000 C   0  0  0  0  0  0  0  0  0  0  0  0
    3.6485   -2.5852    0.0000 C   0  0  0  0  0  0  0  0  0  0  0  0
    3.1023   -3.2587    0.0000 O   0  0  0  0  0  0  0  0  0  0  0  0
    4.6972   -1.7826    0.0000 N   0  0  0  0  0  0  0  0  0  0  0  0
    3.3587   -1.7826    0.0000 N   0  0  0  0  0  0  0  0  0  0  0  0
    0.5275   -0.1567    0.0000 C   0  0  0  0  0  0  0  0  0  0  0  0
   -0.1253   -1.3645    0.0000 F   0  0  0  0  0  0  0  0  0  0  0  0
    0.5246   -2.4965    0.0000 F   0  0  0  0  0  0  0  0  0  0  0  0
   -0.1271   -2.1181    0.0000 F   0  0  0  0  0  0  0  0  0  0  0  0
   -0.1250    0.2203    0.0000 N   0  0  0  0  0  0  0  0  0  0  0  0
   10.3789   -2.3730    0.0000 N   0  0  0  0  0  0  0  0  0  0  0  0
  4  5  1  0  0  0  0
  5  6  2  0  0  0  0
  6  7  1  0  0  0  0
  7  8  2  0  0  0  0
  9 10  1  0  0  0  0
 10 11  2  0  0  0  0
 11 12  1  0  0  0  0
  2 13  2  0  0  0  0
 14 15  1  0  0  0  0
 15 16  1  0  0  0  0
  9 16  1  0  0  0  0
  9 17  2  0  0  0  0
 17 18  1  0  0  0  0
 12 18  2  0  0  0  0
  4 19  2  0  0  0  0
  8 19  1  0  0  0  0
 20 21  1  0  0  0  0
 21 22  1  0  0  0  0
 22 23  1  0  0  0  0
 20 23  1  0  0  0  0
 20 24  1  0  0  0  0
 24 25  2  0  0  0  0
 12 26  1  0  0  0  0
 13 26  1  0  0  0  0
 20 26  1  0  0  0  0
  4 27  1  0  0  0  0
 13 27  1  0  0  0  0
 24 27  1  0  0  0  0
  7 28  1  0  0  0  0
 14  1  1  0  0  0  0
  8  3  1  0  0  0  0
 28 32  3  0  0  0  0
  1 33  3  0  0  0  0
  3 29  1  0  0  0  0
  3 30  1  0  0  0  0
  3 31  1  0  0  0  0
M  END
> <ID>
SCHEMBL21155640

> <InChIKey>
YFBYQTBLLMLBOL-UHFFFAOYSA-N

> <MW>
450.465

> <Series_Name>
Series_1

$$$$
SCHEMBL21155653
  Mrv1719007191918552D 0   0.00000     0.00000     0

 27 29  0  0  0  0              1 V2000 
    0.8109   -3.5954    0.0000 O   0  0  0  0  0  0  0  0  0  0  0  0
    1.7365   -3.9855    0.0000 C   0  0  0  0  0  0  0  0  0  0  0  0
    0.1163   -2.3470    0.0000 C   0  0  0  0  0  0  0  0  0  0  0  0
    0.8366   -2.7663    0.0000 C   0  0  0  0  0  0  0  0  0  0  0  0
    0.9731   -0.2965    0.0000 Br  0  0  0  0  0  0  0  0  0  0  0  0
    0.8238   -1.1380    0.0000 C   0  0  0  0  0  0  0  0  0  0  0  0
    1.5530   -1.5296    0.0000 C   0  0  0  0  0  0  0  0  0  0  0  0
    2.2822   -1.1250    0.0000 C   0  0  0  0  0  0  0  0  0  0  0  0
    3.6719   -0.2601    0.0000 O   0  0  0  0  0  0  0  0  0  0  0  0
    3.7825   -1.1292    0.0000 C   0  0  0  0  0  0  0  0  0  0  0  0
    5.2062   -1.1367    0.0000 C   0  0  0  0  0  0  0  0  0  0  0  0
    4.4132   -1.5266    0.0000 C   0  0  0  0  0  0  0  0  0  0  0  0
    5.1100   -0.2601    0.0000 O   0  0  0  0  0  0  0  0  0  0  0  0
    5.8219   -1.5223    0.0000 C   0  0  0  0  0  0  0  0  0  0  0  0
    6.6056   -1.1207    0.0000 C   0  0  0  0  0  0  0  0  0  0  0  0
    7.2757   -1.5288    0.0000 C   0  0  0  0  0  0  0  0  0  0  0  0
    7.9937   -1.1271    0.0000 C   0  0  0  0  0  0  0  0  0  0  0  0
    8.7090   -1.5382    0.0000 C   0  0  0  0  0  0  0  0  0  0  0  0
    9.5005   -1.2841    0.0000 C   0  0  0  0  0  0  0  0  0  0  0  0
    8.6965   -2.3663    0.0000 C   0  0  0  0  0  0  0  0  0  0  0  0
    9.9297   -1.9706    0.0000 C   0  0  0  0  0  0  0  0  0  0  0  0
    9.4628   -2.6162    0.0000 C   0  0  0  0  0  0  0  0  0  0  0  0
    2.9974   -1.5281    0.0000 C   0  0  0  0  0  0  0  0  0  0  0  0
    1.5545   -2.3662    0.0000 C   0  0  0  0  0  0  0  0  0  0  0  0
    0.1243   -1.5256    0.0000 C   0  0  0  0  0  0  0  0  0  0  0  0
    7.2800   -2.3542    0.0000 C   0  0  0  0  0  0  0  0  0  0  0  0
    7.9745   -2.7710    0.0000 C   0  0  0  0  0  0  0  0  0  0  0  0
  1  2  1  0  0  0  0
  1  4  1  0  0  0  0
  3  4  1  0  0  0  0
  3 25  2  0  0  0  0
  4 24  2  0  0  0  0
  5  6  1  0  0  0  0
  6  7  2  0  0  0  0
  7  8  1  0  0  0  0
  8 23  2  0  0  0  0
  9 10  2  0  0  0  0
 10 12  1  0  0  0  0
 11 12  1  0  0  0  0
 11 14  1  0  0  0  0
 13 11  2  0  0  0  0
 14 15  2  0  0  0  0
 15 16  1  0  0  0  0
 16 17  2  0  0  0  0
 16 26  1  0  0  0  0
 18 17  1  0  0  0  0
 18 19  1  0  0  0  0
 20 18  2  0  0  0  0
 20 22  1  0  0  0  0
 21 19  1  0  0  0  0
 22 21  2  0  0  0  0
 23 10  1  0  0  0  0
 24  7  1  0  0  0  0
 25  6  1  0  0  0  0
 26 27  2  0  0  0  0
 27 20  1  0  0  0  0
M  END
> <ID>
SCHEMBL21155653

> <InChIKey>
FWQZMRLECNEKGJ-OAMUUVBCSA-N

> <MW>
423.306

> <Series_Name>
Series_8

$$$$
SCHEMBL21155654
  Mrv1719007191918552D 0   0.00000     0.00000     0

 30 32  0  0  0  0              1 V2000 
    1.5452   -2.7653    0.0000 C   0  0  0  0  0  0  0  0  0  0  0  0
    2.2549   -3.1387    0.0000 O   0  0  0  0  0  0  0  0  0  0  0  0
    0.5180   -3.1234    0.0000 C   0  0  0  0  0  0  0  0  0  0  0  0
    0.9470   -3.2225    0.0000 C   0  0  0  0  0  0  0  0  0  0  0  0
    2.9817   -2.7524    0.0000 C   0  0  0  0  0  0  0  0  0  0  0  0
    2.9985   -1.9239    0.0000 C   0  0  0  0  0  0  0  0  0  0  0  0
    3.6871   -0.7009    0.0000 O   0  0  0  0  0  0  0  0  0  0  0  0
    3.7217   -1.5174    0.0000 C   0  0  0  0  0  0  0  0  0  0  0  0
    4.4278   -1.9195    0.0000 C   0  0  0  0  0  0  0  0  0  0  0  0
    5.1201   -1.5238    0.0000 C   0  0  0  0  0  0  0  0  0  0  0  0
    5.8679   -1.9145    0.0000 C   0  0  0  0  0  0  0  0  0  0  0  0
    6.4372   -1.5845    0.0000 C   0  0  0  0  0  0  0  0  0  0  0  0
    6.5211   -0.6704    0.0000 O   0  0  0  0  0  0  0  0  0  0  0  0
    7.9051   -1.5415    0.0000 C   0  0  0  0  0  0  0  0  0  0  0  0
    7.9228   -0.6857    0.0000 O   0  0  0  0  0  0  0  0  0  0  0  0
    8.6816   -1.9234    0.0000 C   0  0  0  0  0  0  0  0  0  0  0  0
    9.4157   -1.5468    0.0000 C   0  0  0  0  0  0  0  0  0  0  0  0
   10.1241   -1.9289    0.0000 C   0  0  0  0  0  0  0  0  0  0  0  0
   10.8661   -1.5427    0.0000 C   0  0  0  0  0  0  0  0  0  0  0  0
   11.5459   -1.9281    0.0000 C   0  0  0  0  0  0  0  0  0  0  0  0
   12.3354   -1.6912    0.0000 C   0  0  0  0  0  0  0  0  0  0  0  0
   12.8079   -2.4004    0.0000 C   0  0  0  0  0  0  0  0  0  0  0  0
   12.3261   -3.1768    0.0000 N   0  0  0  0  0  0  0  0  0  0  0  0
   11.5496   -2.7555    0.0000 C   0  0  0  0  0  0  0  0  0  0  0  0
   10.8421   -3.1487    0.0000 C   0  0  0  0  0  0  0  0  0  0  0  0
   10.1311   -2.7604    0.0000 C   0  0  0  0  0  0  0  0  0  0  0  0
    7.1826   -1.8856    0.0000 C   0  0  0  0  0  0  0  0  0  0  0  0
    3.7166   -3.1501    0.0000 C   0  0  0  0  0  0  0  0  0  0  0  0
    4.4192   -2.7445    0.0000 C   0  0  0  0  0  0  0  0  0  0  0  0
    2.6739   -0.2666    0.0000 C   0  0  0  0  0  0  0  0  0  0  0  0
  1  2  1  0  0  0  0
  1  3  1  0  0  0  0
  2  5  1  0  0  0  0
  3  4  1  0  0  0  0
  5  6  2  0  0  0  0
  5 28  1  0  0  0  0
  6  8  1  0  0  0  0
  7  8  1  0  0  0  0
  8  9  2  0  0  0  0
  9 10  1  0  0  0  0
 10 11  2  0  0  0  0
 11 12  1  0  0  0  0
 12 13  2  0  0  0  0
 14 15  2  0  0  0  0
 14 16  1  0  0  0  0
 16 17  2  0  0  0  0
 17 18  1  0  0  0  0
 18 19  2  0  0  0  0
 18 26  1  0  0  0  0
 19 20  1  0  0  0  0
 20 24  2  0  0  0  0
 21 20  1  0  0  0  0
 21 22  2  0  0  0  0
 22 23  1  0  0  0  0
 24 23  1  0  0  0  0
 24 25  1  0  0  0  0
 26 25  2  0  0  0  0
 27 14  1  0  0  0  0
 27 12  1  0  0  0  0
 28 29  2  0  0  0  0
 29  9  1  0  0  0  0
 30  7  1  0  0  0  0
M  END
> <ID>
SCHEMBL21155654

> <InChIKey>
HPWQWOMZHVYFME-HNJDCKIISA-N

> <MW>
403.478

> <Series_Name>
Series_8

$$$$
SCHEMBL21155655
  Mrv1719007191918552D 0   0.00000     0.00000     0

 34 37  0  0  0  0              1 V2000 
    0.5274   -1.7221    0.0000 C   0  0  0  0  0  0  0  0  0  0  0  0
   10.6466   -0.1685    0.0000 N   0  0  0  0  0  0  0  0  0  0  0  0
    4.0689   -0.6490    0.0000 C   0  0  0  0  0  0  0  0  0  0  0  0
    2.6128   -1.3521    0.0000 C   0  0  0  0  0  0  0  0  0  0  0  0
    2.6211   -0.5367    0.0000 C   0  0  0  0  0  0  0  0  0  0  0  0
    1.8972   -0.1123    0.0000 C   0  0  0  0  0  0  0  0  0  0  0  0
    1.1774   -0.5242    0.0000 C   0  0  0  0  0  0  0  0  0  0  0  0
    1.1774   -1.3521    0.0000 C   0  0  0  0  0  0  0  0  0  0  0  0
    6.8522   -0.5326    0.0000 C   0  0  0  0  0  0  0  0  0  0  0  0
    6.1283   -0.1123    0.0000 C   0  0  0  0  0  0  0  0  0  0  0  0
    5.4044   -0.5367    0.0000 C   0  0  0  0  0  0  0  0  0  0  0  0
    5.4044   -1.3521    0.0000 C   0  0  0  0  0  0  0  0  0  0  0  0
    9.0115   -0.1123    0.0000 C   0  0  0  0  0  0  0  0  0  0  0  0
    8.2751   -0.5242    0.0000 C   0  0  0  0  0  0  0  0  0  0  0  0
    7.5637   -0.1123    0.0000 C   0  0  0  0  0  0  0  0  0  0  0  0
    6.8522   -1.3480    0.0000 C   0  0  0  0  0  0  0  0  0  0  0  0
    6.1658   -1.7599    0.0000 C   0  0  0  0  0  0  0  0  0  0  0  0
    4.0606   -1.3105    0.0000 C   0  0  0  0  0  0  0  0  0  0  0  0
    1.8847   -1.7724    0.0000 C   0  0  0  0  0  0  0  0  0  0  0  0
    4.4340   -2.5649    0.0000 C   0  0  0  0  0  0  0  0  0  0  0  0
    5.2547   -2.7084    0.0000 C   0  0  0  0  0  0  0  0  0  0  0  0
    5.1049   -3.5197    0.0000 C   0  0  0  0  0  0  0  0  0  0  0  0
    4.3061   -3.3825    0.0000 C   0  0  0  0  0  0  0  0  0  0  0  0
    3.6404   -2.5795    0.0000 C   0  0  0  0  0  0  0  0  0  0  0  0
    3.0954   -3.2389    0.0000 O   0  0  0  0  0  0  0  0  0  0  0  0
    9.7292   -0.5138    0.0000 C   0  0  0  0  0  0  0  0  0  0  0  0
    9.7229   -1.3667    0.0000 O   0  0  0  0  0  0  0  0  0  0  0  0
    4.6867   -1.7786    0.0000 N   0  0  0  0  0  0  0  0  0  0  0  0
    3.3512   -1.7786    0.0000 N   0  0  0  0  0  0  0  0  0  0  0  0
    0.5304   -0.1490    0.0000 C   0  0  0  0  0  0  0  0  0  0  0  0
   -0.1181   -1.3442    0.0000 F   0  0  0  0  0  0  0  0  0  0  0  0
    0.5228   -2.4700    0.0000 F   0  0  0  0  0  0  0  0  0  0  0  0
   -0.1225   -2.0921    0.0000 F   0  0  0  0  0  0  0  0  0  0  0  0
   -0.1166    0.2262    0.0000 N   0  0  0  0  0  0  0  0  0  0  0  0
  4  5  1  0  0  0  0
  5  6  2  0  0  0  0
  6  7  1  0  0  0  0
  7  8  2  0  0  0  0
  9 10  1  0  0  0  0
 10 11  2  0  0  0  0
 11 12  1  0  0  0  0
 13 14  1  0  0  0  0
 14 15  1  0  0  0  0
  9 15  1  0  0  0  0
  9 16  2  0  0  0  0
 16 17  1  0  0  0  0
 12 17  2  0  0  0  0
  3 18  2  0  0  0  0
  4 19  2  0  0  0  0
  8 19  1  0  0  0  0
 20 21  1  0  0  0  0
 21 22  1  0  0  0  0
 22 23  1  0  0  0  0
 20 23  1  0  0  0  0
 20 24  1  0  0  0  0
 24 25  2  0  0  0  0
  2 26  1  0  0  0  0
 13 26  1  0  0  0  0
 26 27  2  0  0  0  0
 12 28  1  0  0  0  0
 18 28  1  0  0  0  0
 20 28  1  0  0  0  0
  4 29  1  0  0  0  0
 18 29  1  0  0  0  0
 24 29  1  0  0  0  0
  7 30  1  0  0  0  0
  8  1  1  0  0  0  0
 30 34  3  0  0  0  0
  1 31  1  0  0  0  0
  1 32  1  0  0  0  0
  1 33  1  0  0  0  0
M  END
> <ID>
SCHEMBL21155655

> <InChIKey>
NNTRVVHVQXNREB-UHFFFAOYSA-N

> <MW>
468.48

> <Series_Name>
Series_1

$$$$
SCHEMBL21155666
  Mrv1719007191918562D 0   0.00000     0.00000     0

 50 51  0  0  0  0              1 V2000 
    9.1931   -5.1853    0.0000 O   0  0  0  0  0  0  0  0  0  0  0  0
   10.0651   -4.8138    0.0000 C   0  0  0  0  0  0  0  0  0  0  0  0
   10.7808   -5.2233    0.0000 C   0  0  0  0  0  0  0  0  0  0  0  0
   11.4824   -4.7709    0.0000 O   0  0  0  0  0  0  0  0  0  0  0  0
   12.2052   -5.2206    0.0000 C   0  0  0  0  0  0  0  0  0  0  0  0
   12.9266   -4.8149    0.0000 C   0  0  0  0  0  0  0  0  0  0  0  0
   12.9279   -3.9420    0.0000 O   0  0  0  0  0  0  0  0  0  0  0  0
    1.4904   -4.8102    0.0000 C   0  0  0  0  0  0  0  0  0  0  0  0
    1.4656   -3.9319    0.0000 O   0  0  0  0  0  0  0  0  0  0  0  0
    2.1840   -5.2097    0.0000 C   0  0  0  0  0  0  0  0  0  0  0  0
    2.9009   -4.7608    0.0000 O   0  0  0  0  0  0  0  0  0  0  0  0
    3.6289   -5.2117    0.0000 C   0  0  0  0  0  0  0  0  0  0  0  0
    4.3378   -4.8053    0.0000 C   0  0  0  0  0  0  0  0  0  0  0  0
    5.1954   -5.1752    0.0000 O   0  0  0  0  0  0  0  0  0  0  0  0
   11.5106   -3.9767    0.0000 C   0  0  0  0  0  0  0  0  0  0  0  0
   12.2170   -3.5570    0.0000 C   0  0  0  0  0  0  0  0  0  0  0  0
   10.7749   -3.5175    0.0000 O   0  0  0  0  0  0  0  0  0  0  0  0
    2.2028   -3.5527    0.0000 C   0  0  0  0  0  0  0  0  0  0  0  0
    3.5984   -3.5175    0.0000 O   0  0  0  0  0  0  0  0  0  0  0  0
    2.9135   -3.9716    0.0000 C   0  0  0  0  0  0  0  0  0  0  0  0
    3.6176   -2.7125    0.0000 C   0  0  0  0  0  0  0  0  0  0  0  0
    2.9046   -2.2989    0.0000 C   0  0  0  0  0  0  0  0  0  0  0  0
    2.1732   -2.6786    0.0000 O   0  0  0  0  0  0  0  0  0  0  0  0
    3.6253   -1.0575    0.0000 C   0  0  0  0  0  0  0  0  0  0  0  0
    4.3481   -1.4593    0.0000 C   0  0  0  0  0  0  0  0  0  0  0  0
    5.0564   -1.0526    0.0000 C   0  0  0  0  0  0  0  0  0  0  0  0
    5.7727   -1.4616    0.0000 C   0  0  0  0  0  0  0  0  0  0  0  0
    6.4791   -0.1921    0.0000 O   0  0  0  0  0  0  0  0  0  0  0  0
    6.5332   -1.0771    0.0000 C   0  0  0  0  0  0  0  0  0  0  0  0
    7.1925   -1.4548    0.0000 C   0  0  0  0  0  0  0  0  0  0  0  0
    7.8698   -1.0527    0.0000 C   0  0  0  0  0  0  0  0  0  0  0  0
    9.3409   -1.0664    0.0000 C   0  0  0  0  0  0  0  0  0  0  0  0
   10.0626   -1.4664    0.0000 C   0  0  0  0  0  0  0  0  0  0  0  0
   10.8215   -1.0651    0.0000 C   0  0  0  0  0  0  0  0  0  0  0  0
   11.5025   -1.4742    0.0000 C   0  0  0  0  0  0  0  0  0  0  0  0
   12.2203   -2.6887    0.0000 O   0  0  0  0  0  0  0  0  0  0  0  0
   11.4986   -2.3215    0.0000 C   0  0  0  0  0  0  0  0  0  0  0  0
   10.7836   -2.7110    0.0000 C   0  0  0  0  0  0  0  0  0  0  0  0
   10.0633   -2.3116    0.0000 C   0  0  0  0  0  0  0  0  0  0  0  0
    8.6321   -1.4661    0.0000 C   0  0  0  0  0  0  0  0  0  0  0  0
    4.3356   -2.2954    0.0000 C   0  0  0  0  0  0  0  0  0  0  0  0
    2.9190   -1.4671    0.0000 C   0  0  0  0  0  0  0  0  0  0  0  0
   13.7668   -1.0209    0.0000 N   0  0  0  0  0  0  0  0  0  0  0  0
   12.9382   -1.4761    0.0000 C   0  0  0  0  0  0  0  0  0  0  0  0
   12.9112   -2.3344    0.0000 C   0  0  0  0  0  0  0  0  0  0  0  0
    0.7378   -1.0108    0.0000 N   0  0  0  0  0  0  0  0  0  0  0  0
    1.4719   -1.4707    0.0000 C   0  0  0  0  0  0  0  0  0  0  0  0
    1.4790   -2.2965    0.0000 C   0  0  0  0  0  0  0  0  0  0  0  0
    7.9043   -0.1719    0.0000 O   0  0  0  0  0  0  0  0  0  0  0  0
   14.1964   -0.8770    0.0000 C   0  0  0  0  0  0  0  0  0  0  0  0
  1  2  1  0  0  0  0
  2  3  1  0  0  0  0
  3  4  1  0  0  0  0
  5  6  1  0  0  0  0
  5  4  1  0  0  0  0
  6  7  1  0  0  0  0
  8  9  1  0  0  0  0
 10 11  1  0  0  0  0
 10  8  1  0  0  0  0
 12 13  1  0  0  0  0
 12 11  1  0  0  0  0
 14 13  1  0  0  0  0
 15 16  1  0  0  0  0
 15 17  1  0  0  0  0
 16  7  1  0  0  0  0
 18  9  1  0  0  0  0
 19 20  1  0  0  0  0
 19 21  1  0  0  0  0
 20 18  1  0  0  0  0
 21 22  1  0  0  0  0
 21 41  2  0  0  0  0
 22 42  2  0  0  0  0
 23 22  1  0  0  0  0
 24 25  2  0  0  0  0
 25 26  1  0  0  0  0
 26 27  2  0  0  0  0
 28 29  2  0  0  0  0
 29 30  1  0  0  0  0
 29 27  1  0  0  0  0
 30 31  1  0  0  0  0
 31 49  2  0  0  0  0
 32 33  1  0  0  0  0
 33 34  2  0  0  0  0
 33 39  1  0  0  0  0
 35 34  1  0  0  0  0
 36 37  1  0  0  0  0
 36 45  1  0  0  0  0
 37 35  2  0  0  0  0
 38 37  1  0  0  0  0
 38 17  1  0  0  0  0
 39 38  2  0  0  0  0
 40 32  2  0  0  0  0
 40 31  1  0  0  0  0
 41 25  1  0  0  0  0
 42 24  1  0  0  0  0
 43 44  1  0  0  0  0
 43 50  1  0  0  0  0
 44 45  1  0  0  0  0
 46 47  1  0  0  0  0
 47 48  1  0  0  0  0
 48 23  1  0  0  0  0
M  END
> <ID>
SCHEMBL21155666

> <InChIKey>
LBAGQLGSTGLFMF-YPCIICBESA-N

> <MW>
704.814

> <Series_Name>
Series_8

$$$$
SCHEMBL21155668
  Mrv1719007191918562D 0   0.00000     0.00000     0

 34 35  0  0  0  0              1 V2000 
    4.1599   -2.2989    0.0000 C   0  0  0  0  0  0  0  0  0  0  0  0
    3.4370   -2.6802    0.0000 O   0  0  0  0  0  0  0  0  0  0  0  0
    4.8809   -1.0538    0.0000 C   0  0  0  0  0  0  0  0  0  0  0  0
    5.5893   -1.4595    0.0000 C   0  0  0  0  0  0  0  0  0  0  0  0
    6.2754   -1.0500    0.0000 C   0  0  0  0  0  0  0  0  0  0  0  0
    6.9949   -1.4605    0.0000 C   0  0  0  0  0  0  0  0  0  0  0  0
    7.7613   -1.0458    0.0000 C   0  0  0  0  0  0  0  0  0  0  0  0
    9.1298   -1.0481    0.0000 C   0  0  0  0  0  0  0  0  0  0  0  0
    8.3715   -1.4499    0.0000 C   0  0  0  0  0  0  0  0  0  0  0  0
    9.8057   -1.4628    0.0000 C   0  0  0  0  0  0  0  0  0  0  0  0
   10.5031   -1.0563    0.0000 C   0  0  0  0  0  0  0  0  0  0  0  0
   11.2132   -1.4658    0.0000 C   0  0  0  0  0  0  0  0  0  0  0  0
   11.9194   -1.0525    0.0000 C   0  0  0  0  0  0  0  0  0  0  0  0
   11.2122   -2.2982    0.0000 C   0  0  0  0  0  0  0  0  0  0  0  0
   12.6272   -1.4530    0.0000 C   0  0  0  0  0  0  0  0  0  0  0  0
   12.6326   -2.3039    0.0000 C   0  0  0  0  0  0  0  0  0  0  0  0
   13.3276   -2.6802    0.0000 O   0  0  0  0  0  0  0  0  0  0  0  0
   11.9286   -2.7339    0.0000 C   0  0  0  0  0  0  0  0  0  0  0  0
   11.9086   -3.5316    0.0000 O   0  0  0  0  0  0  0  0  0  0  0  0
    5.5847   -2.3042    0.0000 C   0  0  0  0  0  0  0  0  0  0  0  0
    4.8559   -3.5211    0.0000 O   0  0  0  0  0  0  0  0  0  0  0  0
    4.8743   -2.7276    0.0000 C   0  0  0  0  0  0  0  0  0  0  0  0
    4.1598   -1.4737    0.0000 C   0  0  0  0  0  0  0  0  0  0  0  0
    2.0519   -2.7170    0.0000 C   0  0  0  0  0  0  0  0  0  0  0  0
    2.7611   -2.3091    0.0000 C   0  0  0  0  0  0  0  0  0  0  0  0
    1.3349   -2.2703    0.0000 N   0  0  0  0  0  0  0  0  0  0  0  0
   14.7270   -2.7175    0.0000 C   0  0  0  0  0  0  0  0  0  0  0  0
   15.2350   -2.5161    0.0000 N   0  0  0  0  0  0  0  0  0  0  0  0
   15.6635   -2.8553    0.0000 Cl  0  0  0  0  0  0  0  0  0  0  0  0
   14.0632   -2.2918    0.0000 C   0  0  0  0  0  0  0  0  0  0  0  0
    7.6728   -0.1892    0.0000 O   0  0  0  0  0  0  0  0  0  0  0  0
    9.0812   -0.1892    0.0000 O   0  0  0  0  0  0  0  0  0  0  0  0
    3.9362   -3.9310    0.0000 C   0  0  0  0  0  0  0  0  0  0  0  0
   12.7704   -3.9257    0.0000 C   0  0  0  0  0  0  0  0  0  0  0  0
  1  2  1  0  0  0  0
  1 22  1  0  0  0  0
  2 25  1  0  0  0  0
  3  4  2  0  0  0  0
  3 23  1  0  0  0  0
  4  5  1  0  0  0  0
  5  6  2  0  0  0  0
  7  6  1  0  0  0  0
  7  9  1  0  0  0  0
  8  9  1  0  0  0  0
  8 10  1  0  0  0  0
 10 11  2  0  0  0  0
 11 12  1  0  0  0  0
 12 13  2  0  0  0  0
 12 14  1  0  0  0  0
 13 15  1  0  0  0  0
 14 18  2  0  0  0  0
 15 16  2  0  0  0  0
 16 17  1  0  0  0  0
 17 30  1  0  0  0  0
 18 16  1  0  0  0  0
 18 19  1  0  0  0  0
 19 34  1  0  0  0  0
 20  4  1  0  0  0  0
 21 22  1  0  0  0  0
 22 20  2  0  0  0  0
 23  1  2  0  0  0  0
 24 25  1  0  0  0  0
 24 26  1  0  0  0  0
 27 28  1  0  0  0  0
 28 29  1  0  0  0  0
 30 27  1  0  0  0  0
 31  7  2  0  0  0  0
 32  8  2  0  0  0  0
 33 21  1  0  0  0  0
M  END
> <ID>
SCHEMBL21155668

> <InChIKey>
JPBUYGWQTBSOGB-FCXRPNKRSA-N

> <MW>
488.97

> <Series_Name>
Series_8

$$$$
SCHEMBL21155736
  Mrv1719007191918592D 0   0.00000     0.00000     0

 33 36  0  0  0  0              1 V2000 
    8.9802   -0.1414    0.0000 O   0  0  0  0  0  0  0  0  0  0  0  0
    0.5223   -1.7296    0.0000 C   0  0  0  0  0  0  0  0  0  0  0  0
    4.0948   -0.6532    0.0000 C   0  0  0  0  0  0  0  0  0  0  0  0
    2.6294   -1.3607    0.0000 C   0  0  0  0  0  0  0  0  0  0  0  0
    2.6378   -0.5401    0.0000 C   0  0  0  0  0  0  0  0  0  0  0  0
    1.9595   -0.1382    0.0000 C   0  0  0  0  0  0  0  0  0  0  0  0
    1.1807   -0.5360    0.0000 C   0  0  0  0  0  0  0  0  0  0  0  0
    6.8875   -0.5276    0.0000 C   0  0  0  0  0  0  0  0  0  0  0  0
    6.1297   -0.1256    0.0000 C   0  0  0  0  0  0  0  0  0  0  0  0
    5.4389   -0.5401    0.0000 C   0  0  0  0  0  0  0  0  0  0  0  0
    5.4389   -1.3607    0.0000 C   0  0  0  0  0  0  0  0  0  0  0  0
    7.6119   -0.1130    0.0000 C   0  0  0  0  0  0  0  0  0  0  0  0
    6.8331   -1.4068    0.0000 C   0  0  0  0  0  0  0  0  0  0  0  0
    6.1799   -1.7837    0.0000 C   0  0  0  0  0  0  0  0  0  0  0  0
    1.1723   -1.3607    0.0000 C   0  0  0  0  0  0  0  0  0  0  0  0
    4.0865   -1.3189    0.0000 C   0  0  0  0  0  0  0  0  0  0  0  0
    1.8967   -1.7837    0.0000 C   0  0  0  0  0  0  0  0  0  0  0  0
    4.4528   -2.5875    0.0000 C   0  0  0  0  0  0  0  0  0  0  0  0
    4.2456   -3.3914    0.0000 C   0  0  0  0  0  0  0  0  0  0  0  0
    5.0494   -3.5924    0.0000 C   0  0  0  0  0  0  0  0  0  0  0  0
    5.2630   -2.8136    0.0000 C   0  0  0  0  0  0  0  0  0  0  0  0
    3.6280   -2.5687    0.0000 C   0  0  0  0  0  0  0  0  0  0  0  0
    3.1905   -3.3098    0.0000 O   0  0  0  0  0  0  0  0  0  0  0  0
    8.3341   -0.5171    0.0000 C   0  0  0  0  0  0  0  0  0  0  0  0
    8.3279   -1.3754    0.0000 O   0  0  0  0  0  0  0  0  0  0  0  0
    4.7166   -1.7899    0.0000 N   0  0  0  0  0  0  0  0  0  0  0  0
    3.3600   -1.7899    0.0000 N   0  0  0  0  0  0  0  0  0  0  0  0
    0.5452   -0.1425    0.0000 C   0  0  0  0  0  0  0  0  0  0  0  0
   -0.1223   -1.3511    0.0000 F   0  0  0  0  0  0  0  0  0  0  0  0
    0.5167   -2.4770    0.0000 F   0  0  0  0  0  0  0  0  0  0  0  0
   -0.1277   -2.0986    0.0000 F   0  0  0  0  0  0  0  0  0  0  0  0
   -0.0903    0.2510    0.0000 N   0  0  0  0  0  0  0  0  0  0  0  0
    9.6264    0.2343    0.0000 C   0  0  0  0  0  0  0  0  0  0  0  0
  4  5  1  0  0  0  0
  5  6  2  0  0  0  0
  6  7  1  0  0  0  0
  8  9  1  0  0  0  0
  9 10  2  0  0  0  0
 10 11  1  0  0  0  0
  8 12  1  0  0  0  0
  8 13  2  0  0  0  0
 13 14  1  0  0  0  0
 11 14  2  0  0  0  0
  7 15  2  0  0  0  0
  3 16  2  0  0  0  0
  4 17  2  0  0  0  0
 15 17  1  0  0  0  0
 18 19  1  0  0  0  0
 19 20  1  0  0  0  0
 20 21  1  0  0  0  0
 18 21  1  0  0  0  0
 18 22  1  0  0  0  0
 22 23  2  0  0  0  0
 12 24  1  0  0  0  0
 24 25  2  0  0  0  0
 11 26  1  0  0  0  0
 16 26  1  0  0  0  0
 18 26  1  0  0  0  0
  4 27  1  0  0  0  0
 16 27  1  0  0  0  0
 22 27  1  0  0  0  0
  7 28  1  0  0  0  0
 24  1  1  0  0  0  0
 15  2  1  0  0  0  0
 28 32  3  0  0  0  0
  1 33  1  0  0  0  0
  2 29  1  0  0  0  0
  2 30  1  0  0  0  0
  2 31  1  0  0  0  0
M  END
> <ID>
SCHEMBL21155736

> <InChIKey>
ASGUYESQOHGZPE-UHFFFAOYSA-N

> <MW>
455.437

> <Series_Name>
Series_1

$$$$
SCHEMBL21155869
  Mrv1719007191919502D 0   0.00000     0.00000     0

 28 32  0  0  0  0              1 V2000 
    8.0829   -3.4998    0.0000 C   0  0  0  0  0  0  0  0  0  0  0  0
    8.0930   -4.3394    0.0000 C   0  0  0  0  0  0  0  0  0  0  0  0
    7.3776   -3.1010    0.0000 C   0  0  0  0  0  0  0  0  0  0  0  0
    6.6238   -3.7619    0.0000 N   0  0  0  0  0  0  0  0  0  0  0  0
    8.8125   -3.1069    0.0000 C   0  0  0  0  0  0  0  0  0  0  0  0
   10.2302   -3.1080    0.0000 C   0  0  0  0  0  0  0  0  0  0  0  0
   10.9448   -3.5077    0.0000 C   0  0  0  0  0  0  0  0  0  0  0  0
   10.2368   -4.7449    0.0000 C   0  0  0  0  0  0  0  0  0  0  0  0
   10.9501   -4.3304    0.0000 C   0  0  0  0  0  0  0  0  0  0  0  0
    8.8044   -4.7389    0.0000 C   0  0  0  0  0  0  0  0  0  0  0  0
    9.5110   -4.3351    0.0000 C   0  0  0  0  0  0  0  0  0  0  0  0
    9.5084   -3.5018    0.0000 C   0  0  0  0  0  0  0  0  0  0  0  0
    4.5099   -3.0778    0.0000 C   0  0  0  0  0  0  0  0  0  0  0  0
    4.5113   -2.2600    0.0000 C   0  0  0  0  0  0  0  0  0  0  0  0
    3.0918   -2.2625    0.0000 C   0  0  0  0  0  0  0  0  0  0  0  0
    3.8087   -1.8493    0.0000 C   0  0  0  0  0  0  0  0  0  0  0  0
    2.3696   -1.8537    0.0000 C   0  0  0  0  0  0  0  0  0  0  0  0
    1.5659   -2.3580    0.0000 N   0  0  0  0  0  0  0  0  0  0  0  0
    2.3693   -1.0098    0.0000 C   0  0  0  0  0  0  0  0  0  0  0  0
    1.5659   -0.5310    0.0000 N   0  0  0  0  0  0  0  0  0  0  0  0
    3.8013   -1.0123    0.0000 C   0  0  0  0  0  0  0  0  0  0  0  0
    5.2018   -1.8539    0.0000 N   0  0  0  0  0  0  0  0  0  0  0  0
    5.2198   -3.5100    0.0000 S   0  0  0  0  0  0  0  0  0  0  0  0
    3.0935   -0.6000    0.0000 C   0  0  0  0  0  0  0  0  0  0  0  0
    5.9218   -2.2680    0.0000 N   0  0  0  0  0  0  0  0  0  0  0  0
    5.9284   -3.0924    0.0000 C   0  0  0  0  0  0  0  0  0  0  0  0
    0.2700   -1.4399    0.0000 O   0  0  0  0  0  0  0  0  0  0  0  0
    1.1591   -1.4966    0.0000 C   0  0  0  0  0  0  0  0  0  0  0  0
  1  2  2  0  0  0  0
  1  5  1  0  0  0  0
  2 10  1  0  0  0  0
  3  4  1  0  0  0  0
  3  1  1  0  0  0  0
  5 12  2  0  0  0  0
  6  7  2  0  0  0  0
  8  9  2  0  0  0  0
  9  7  1  0  0  0  0
 10 11  2  0  0  0  0
 11 12  1  0  0  0  0
 11  8  1  0  0  0  0
 12  6  1  0  0  0  0
 13 14  1  0  0  0  0
 13 23  1  0  0  0  0
 14 22  2  0  0  0  0
 15 16  2  0  0  0  0
 16 14  1  0  0  0  0
 17 15  1  0  0  0  0
 17 18  1  0  0  0  0
 19 17  2  0  0  0  0
 19 24  1  0  0  0  0
 20 19  1  0  0  0  0
 21 16  1  0  0  0  0
 22 25  1  0  0  0  0
 24 21  2  0  0  0  0
 25 26  2  0  0  0  0
 26  4  1  0  0  0  0
 26 23  1  0  0  0  0
 27 28  2  0  0  0  0
 28 20  1  0  0  0  0
 28 18  1  0  0  0  0
M  END
> <ID>
SCHEMBL21155869

> <InChIKey>
KMRAAFBOCRRZJQ-UHFFFAOYSA-N

> <MW>
387.46

> <Series_Name>
Series_2

$$$$
SCHEMBL21155876
  Mrv1719007191919502D 0   0.00000     0.00000     0

 28 32  0  0  0  0              1 V2000 
    8.1608   -3.4680    0.0000 C   0  0  0  0  0  0  0  0  0  0  0  0
    8.1663   -4.2936    0.0000 C   0  0  0  0  0  0  0  0  0  0  0  0
    7.4350   -3.0688    0.0000 C   0  0  0  0  0  0  0  0  0  0  0  0
    6.6773   -3.7215    0.0000 N   0  0  0  0  0  0  0  0  0  0  0  0
    8.8819   -2.2415    0.0000 C   0  0  0  0  0  0  0  0  0  0  0  0
    8.8745   -3.0585    0.0000 C   0  0  0  0  0  0  0  0  0  0  0  0
    9.5954   -3.4610    0.0000 C   0  0  0  0  0  0  0  0  0  0  0  0
   10.3156   -3.0637    0.0000 C   0  0  0  0  0  0  0  0  0  0  0  0
    9.5864   -4.2974    0.0000 C   0  0  0  0  0  0  0  0  0  0  0  0
    8.8821   -4.6967    0.0000 C   0  0  0  0  0  0  0  0  0  0  0  0
   10.3077   -2.2393    0.0000 C   0  0  0  0  0  0  0  0  0  0  0  0
    9.6012   -1.8491    0.0000 C   0  0  0  0  0  0  0  0  0  0  0  0
    4.5729   -3.0599    0.0000 C   0  0  0  0  0  0  0  0  0  0  0  0
    4.5587   -2.2350    0.0000 C   0  0  0  0  0  0  0  0  0  0  0  0
    3.8390   -1.8308    0.0000 C   0  0  0  0  0  0  0  0  0  0  0  0
    3.1145   -2.2380    0.0000 C   0  0  0  0  0  0  0  0  0  0  0  0
    2.4038   -1.8316    0.0000 C   0  0  0  0  0  0  0  0  0  0  0  0
    1.5669   -2.3326    0.0000 N   0  0  0  0  0  0  0  0  0  0  0  0
    2.3941   -1.0015    0.0000 C   0  0  0  0  0  0  0  0  0  0  0  0
    1.5669   -0.5253    0.0000 N   0  0  0  0  0  0  0  0  0  0  0  0
    3.1237   -0.5931    0.0000 C   0  0  0  0  0  0  0  0  0  0  0  0
    3.8350   -0.9920    0.0000 C   0  0  0  0  0  0  0  0  0  0  0  0
    5.2528   -1.8341    0.0000 N   0  0  0  0  0  0  0  0  0  0  0  0
    5.2528   -3.4722    0.0000 S   0  0  0  0  0  0  0  0  0  0  0  0
    5.9651   -2.2435    0.0000 N   0  0  0  0  0  0  0  0  0  0  0  0
    5.9908   -3.0579    0.0000 C   0  0  0  0  0  0  0  0  0  0  0  0
    0.2671   -1.4245    0.0000 O   0  0  0  0  0  0  0  0  0  0  0  0
    1.1412   -1.4621    0.0000 C   0  0  0  0  0  0  0  0  0  0  0  0
  1  2  2  0  0  0  0
  1  6  1  0  0  0  0
  2 10  1  0  0  0  0
  3  1  1  0  0  0  0
  4  3  1  0  0  0  0
  5  6  1  0  0  0  0
  5 12  2  0  0  0  0
  6  7  2  0  0  0  0
  7  8  1  0  0  0  0
  7  9  1  0  0  0  0
 10  9  2  0  0  0  0
 11  8  2  0  0  0  0
 12 11  1  0  0  0  0
 13 14  1  0  0  0  0
 13 24  1  0  0  0  0
 14 23  2  0  0  0  0
 15 14  1  0  0  0  0
 16 15  2  0  0  0  0
 17 18  1  0  0  0  0
 17 16  1  0  0  0  0
 19 17  2  0  0  0  0
 19 21  1  0  0  0  0
 20 19  1  0  0  0  0
 21 22  2  0  0  0  0
 22 15  1  0  0  0  0
 23 25  1  0  0  0  0
 25 26  2  0  0  0  0
 26  4  1  0  0  0  0
 26 24  1  0  0  0  0
 27 28  2  0  0  0  0
 28 20  1  0  0  0  0
 28 18  1  0  0  0  0
M  END
> <ID>
SCHEMBL21155876

> <InChIKey>
VVKDZVCNLJHYQY-UHFFFAOYSA-N

> <MW>
387.46

> <Series_Name>
Series_2

$$$$
SCHEMBL21155894
  Mrv1719007191919552D 0   0.00000     0.00000     0

 32 33  0  0  0  0              1 V2000 
    4.1231   -2.3130    0.0000 C   0  0  0  0  0  0  0  0  0  0  0  0
    3.4193   -2.7011    0.0000 O   0  0  0  0  0  0  0  0  0  0  0  0
    4.1201   -1.4729    0.0000 C   0  0  0  0  0  0  0  0  0  0  0  0
    3.2119   -1.0167    0.0000 C   0  0  0  0  0  0  0  0  0  0  0  0
    4.8108   -1.0361    0.0000 C   0  0  0  0  0  0  0  0  0  0  0  0
    5.5154   -1.4735    0.0000 C   0  0  0  0  0  0  0  0  0  0  0  0
    7.5872   -0.1821    0.0000 O   0  0  0  0  0  0  0  0  0  0  0  0
    7.6128   -1.0324    0.0000 C   0  0  0  0  0  0  0  0  0  0  0  0
   10.3876   -1.0580    0.0000 C   0  0  0  0  0  0  0  0  0  0  0  0
   11.0900   -1.4802    0.0000 C   0  0  0  0  0  0  0  0  0  0  0  0
   11.8172   -1.0723    0.0000 C   0  0  0  0  0  0  0  0  0  0  0  0
   12.4998   -1.4783    0.0000 C   0  0  0  0  0  0  0  0  0  0  0  0
   13.3282   -1.0218    0.0000 C   0  0  0  0  0  0  0  0  0  0  0  0
   13.1815   -2.7011    0.0000 O   0  0  0  0  0  0  0  0  0  0  0  0
   12.4980   -2.3157    0.0000 C   0  0  0  0  0  0  0  0  0  0  0  0
   11.7924   -2.7454    0.0000 C   0  0  0  0  0  0  0  0  0  0  0  0
   11.0910   -2.3098    0.0000 C   0  0  0  0  0  0  0  0  0  0  0  0
    9.6938   -1.4634    0.0000 C   0  0  0  0  0  0  0  0  0  0  0  0
    9.0788   -1.0471    0.0000 C   0  0  0  0  0  0  0  0  0  0  0  0
    8.2923   -1.4744    0.0000 C   0  0  0  0  0  0  0  0  0  0  0  0
    6.9214   -1.4816    0.0000 C   0  0  0  0  0  0  0  0  0  0  0  0
    6.2170   -1.0394    0.0000 C   0  0  0  0  0  0  0  0  0  0  0  0
    5.5167   -2.3070    0.0000 C   0  0  0  0  0  0  0  0  0  0  0  0
    4.8173   -2.7387    0.0000 C   0  0  0  0  0  0  0  0  0  0  0  0
   13.8804   -2.3163    0.0000 C   0  0  0  0  0  0  0  0  0  0  0  0
   14.5850   -2.7377    0.0000 C   0  0  0  0  0  0  0  0  0  0  0  0
   15.0954   -2.5438    0.0000 N   0  0  0  0  0  0  0  0  0  0  0  0
   15.5186   -2.8888    0.0000 Cl  0  0  0  0  0  0  0  0  0  0  0  0
    1.3253   -2.2762    0.0000 N   0  0  0  0  0  0  0  0  0  0  0  0
    2.0550   -2.7289    0.0000 C   0  0  0  0  0  0  0  0  0  0  0  0
    2.7248   -2.3198    0.0000 C   0  0  0  0  0  0  0  0  0  0  0  0
    8.9732   -0.1720    0.0000 O   0  0  0  0  0  0  0  0  0  0  0  0
  1  2  1  0  0  0  0
  1 24  1  0  0  0  0
  3  1  2  0  0  0  0
  3  5  1  0  0  0  0
  4  3  1  0  0  0  0
  5  6  2  0  0  0  0
  6 22  1  0  0  0  0
  7  8  2  0  0  0  0
  8 20  1  0  0  0  0
  9 10  1  0  0  0  0
 10 11  2  0  0  0  0
 10 17  1  0  0  0  0
 12 11  1  0  0  0  0
 12 13  1  0  0  0  0
 14 25  1  0  0  0  0
 15 14  1  0  0  0  0
 15 12  2  0  0  0  0
 16 15  1  0  0  0  0
 17 16  2  0  0  0  0
 18  9  2  0  0  0  0
 19 18  1  0  0  0  0
 19 20  1  0  0  0  0
 21  8  1  0  0  0  0
 22 21  2  0  0  0  0
 23  6  1  0  0  0  0
 24 23  2  0  0  0  0
 25 26  1  0  0  0  0
 27 28  1  0  0  0  0
 27 26  1  0  0  0  0
 29 30  1  0  0  0  0
 31  2  1  0  0  0  0
 31 30  1  0  0  0  0
 32 19  2  0  0  0  0
M  END
> <ID>
SCHEMBL21155894

> <InChIKey>
YIGHRNCOSSSFME-FCXRPNKRSA-N

> <MW>
456.97

> <Series_Name>
Series_8

$$$$
SCHEMBL21155897
  Mrv1719007191919552D 0   0.00000     0.00000     0

 38 39  0  0  0  0              1 V2000 
   13.0123   -2.7584    0.0000 C   0  0  0  0  0  0  0  0  0  0  0  0
   12.3357   -2.3536    0.0000 C   0  0  0  0  0  0  0  0  0  0  0  0
   11.5921   -2.7276    0.0000 O   0  0  0  0  0  0  0  0  0  0  0  0
   13.1476   -3.5799    0.0000 N   0  0  0  0  0  0  0  0  0  0  0  0
    0.8926   -2.3463    0.0000 C   0  0  0  0  0  0  0  0  0  0  0  0
    1.5663   -2.7276    0.0000 O   0  0  0  0  0  0  0  0  0  0  0  0
    0.1682   -2.7620    0.0000 C   0  0  0  0  0  0  0  0  0  0  0  0
    0.2930   -3.5799    0.0000 N   0  0  0  0  0  0  0  0  0  0  0  0
    2.3007   -2.3445    0.0000 C   0  0  0  0  0  0  0  0  0  0  0  0
    3.0064   -2.7628    0.0000 C   0  0  0  0  0  0  0  0  0  0  0  0
    4.3754   -1.1121    0.0000 C   0  0  0  0  0  0  0  0  0  0  0  0
    4.4016   -1.0903    0.0000 C   0  0  0  0  0  0  0  0  0  0  0  0
    4.5761   -0.1918    0.0000 C   0  0  0  0  0  0  0  0  0  0  0  0
    5.1275   -1.5305    0.0000 C   0  0  0  0  0  0  0  0  0  0  0  0
    3.7202   -1.4938    0.0000 C   0  0  0  0  0  0  0  0  0  0  0  0
    2.9939   -3.5692    0.0000 O   0  0  0  0  0  0  0  0  0  0  0  0
    3.7190   -2.3424    0.0000 C   0  0  0  0  0  0  0  0  0  0  0  0
    3.0055   -1.0800    0.0000 C   0  0  0  0  0  0  0  0  0  0  0  0
    2.3124   -1.4905    0.0000 C   0  0  0  0  0  0  0  0  0  0  0  0
    9.4573   -2.3396    0.0000 C   0  0  0  0  0  0  0  0  0  0  0  0
   10.1556   -2.7593    0.0000 C   0  0  0  0  0  0  0  0  0  0  0  0
    8.0394   -1.5289    0.0000 C   0  0  0  0  0  0  0  0  0  0  0  0
    8.7848   -1.1082    0.0000 C   0  0  0  0  0  0  0  0  0  0  0  0
    8.1560   -2.3067    0.0000 C   0  0  0  0  0  0  0  0  0  0  0  0
    7.3373   -1.1005    0.0000 C   0  0  0  0  0  0  0  0  0  0  0  0
    5.9459   -1.0900    0.0000 C   0  0  0  0  0  0  0  0  0  0  0  0
    6.6017   -1.4933    0.0000 C   0  0  0  0  0  0  0  0  0  0  0  0
    5.2900   -2.3014    0.0000 C   0  0  0  0  0  0  0  0  0  0  0  0
    5.8599   -0.1918    0.0000 O   0  0  0  0  0  0  0  0  0  0  0  0
    8.8752   -0.1918    0.0000 C   0  0  0  0  0  0  0  0  0  0  0  0
    9.4561   -1.4944    0.0000 C   0  0  0  0  0  0  0  0  0  0  0  0
   10.1661   -1.0759    0.0000 C   0  0  0  0  0  0  0  0  0  0  0  0
   10.8682   -1.4904    0.0000 C   0  0  0  0  0  0  0  0  0  0  0  0
   10.8678   -2.3450    0.0000 C   0  0  0  0  0  0  0  0  0  0  0  0
   10.1431   -3.5692    0.0000 O   0  0  0  0  0  0  0  0  0  0  0  0
    7.2983   -0.1918    0.0000 O   0  0  0  0  0  0  0  0  0  0  0  0
    9.2321   -3.9901    0.0000 C   0  0  0  0  0  0  0  0  0  0  0  0
    3.8569   -3.9901    0.0000 C   0  0  0  0  0  0  0  0  0  0  0  0
  1  2  1  0  0  0  0
  1  4  1  0  0  0  0
  2  3  1  0  0  0  0
  3 34  1  0  0  0  0
  5  6  1  0  0  0  0
  5  7  1  0  0  0  0
  6  9  1  0  0  0  0
  7  8  1  0  0  0  0
  9 10  1  0  0  0  0
  9 19  2  0  0  0  0
 10 17  2  0  0  0  0
 11 12  1  0  0  0  0
 11 14  2  0  0  0  0
 12 13  1  0  0  0  0
 14 28  1  0  0  0  0
 15 11  1  0  0  0  0
 16 10  1  0  0  0  0
 16 38  1  0  0  0  0
 17 15  1  0  0  0  0
 18 15  2  0  0  0  0
 19 18  1  0  0  0  0
 20 21  2  0  0  0  0
 20 31  1  0  0  0  0
 21 34  1  0  0  0  0
 21 35  1  0  0  0  0
 22 23  2  0  0  0  0
 23 30  1  0  0  0  0
 23 31  1  0  0  0  0
 24 22  1  0  0  0  0
 25 22  1  0  0  0  0
 26 27  1  0  0  0  0
 26 14  1  0  0  0  0
 27 25  1  0  0  0  0
 29 26  2  0  0  0  0
 31 32  2  0  0  0  0
 33 32  1  0  0  0  0
 34 33  2  0  0  0  0
 36 25  2  0  0  0  0
 37 35  1  0  0  0  0
M  END
> <ID>
SCHEMBL21155897

> <InChIKey>
OJWHSZDJBBUCKM-OLFUNREKSA-N

> <MW>
524.658

> <Series_Name>
Series_8

$$$$
SCHEMBL21155914
  Mrv1719007191919562D 0   0.00000     0.00000     0

 47 48  0  0  0  0              1 V2000 
    1.4662   -4.7302    0.0000 C   0  0  0  0  0  0  0  0  0  0  0  0
    1.4639   -3.9052    0.0000 C   0  0  0  0  0  0  0  0  0  0  0  0
    2.1840   -3.4927    0.0000 C   0  0  0  0  0  0  0  0  0  0  0  0
    2.8911   -3.8982    0.0000 C   0  0  0  0  0  0  0  0  0  0  0  0
    3.6008   -3.4546    0.0000 O   0  0  0  0  0  0  0  0  0  0  0  0
    2.1853   -5.1491    0.0000 C   0  0  0  0  0  0  0  0  0  0  0  0
    2.8993   -4.7364    0.0000 C   0  0  0  0  0  0  0  0  0  0  0  0
    3.6186   -5.1434    0.0000 C   0  0  0  0  0  0  0  0  0  0  0  0
    4.4553   -4.7066    0.0000 C   0  0  0  0  0  0  0  0  0  0  0  0
   10.7058   -5.1374    0.0000 C   0  0  0  0  0  0  0  0  0  0  0  0
   11.4231   -4.7278    0.0000 C   0  0  0  0  0  0  0  0  0  0  0  0
   12.1443   -5.1304    0.0000 C   0  0  0  0  0  0  0  0  0  0  0  0
   12.8514   -4.6951    0.0000 C   0  0  0  0  0  0  0  0  0  0  0  0
   12.8318   -3.9072    0.0000 C   0  0  0  0  0  0  0  0  0  0  0  0
   12.1607   -3.4969    0.0000 C   0  0  0  0  0  0  0  0  0  0  0  0
   11.4310   -3.8939    0.0000 C   0  0  0  0  0  0  0  0  0  0  0  0
   10.7018   -3.4455    0.0000 O   0  0  0  0  0  0  0  0  0  0  0  0
    9.7742   -4.6929    0.0000 C   0  0  0  0  0  0  0  0  0  0  0  0
    2.1659   -2.6411    0.0000 O   0  0  0  0  0  0  0  0  0  0  0  0
    2.8921   -2.2651    0.0000 C   0  0  0  0  0  0  0  0  0  0  0  0
    2.9161   -1.4120    0.0000 C   0  0  0  0  0  0  0  0  0  0  0  0
    3.6085   -1.0217    0.0000 C   0  0  0  0  0  0  0  0  0  0  0  0
    4.3180   -1.4346    0.0000 C   0  0  0  0  0  0  0  0  0  0  0  0
    5.0083   -1.0258    0.0000 C   0  0  0  0  0  0  0  0  0  0  0  0
    5.7377   -1.4401    0.0000 C   0  0  0  0  0  0  0  0  0  0  0  0
    6.4201   -1.0203    0.0000 C   0  0  0  0  0  0  0  0  0  0  0  0
    6.4339   -0.1828    0.0000 O   0  0  0  0  0  0  0  0  0  0  0  0
    7.1398   -1.4266    0.0000 C   0  0  0  0  0  0  0  0  0  0  0  0
    7.8388   -1.0258    0.0000 C   0  0  0  0  0  0  0  0  0  0  0  0
    8.5760   -1.4276    0.0000 C   0  0  0  0  0  0  0  0  0  0  0  0
    9.2717   -1.0193    0.0000 C   0  0  0  0  0  0  0  0  0  0  0  0
    9.9841   -1.4264    0.0000 C   0  0  0  0  0  0  0  0  0  0  0  0
   10.7086   -1.0154    0.0000 C   0  0  0  0  0  0  0  0  0  0  0  0
    9.9966   -2.2608    0.0000 C   0  0  0  0  0  0  0  0  0  0  0  0
   11.4022   -1.4140    0.0000 C   0  0  0  0  0  0  0  0  0  0  0  0
   11.4199   -2.2542    0.0000 C   0  0  0  0  0  0  0  0  0  0  0  0
   12.1274   -2.6230    0.0000 O   0  0  0  0  0  0  0  0  0  0  0  0
   10.7074   -2.6647    0.0000 C   0  0  0  0  0  0  0  0  0  0  0  0
    4.3227   -2.2450    0.0000 C   0  0  0  0  0  0  0  0  0  0  0  0
    3.5963   -2.6624    0.0000 C   0  0  0  0  0  0  0  0  0  0  0  0
    1.4594   -1.4398    0.0000 C   0  0  0  0  0  0  0  0  0  0  0  0
    0.7311   -0.9961    0.0000 N   0  0  0  0  0  0  0  0  0  0  0  0
    1.4688   -2.2648    0.0000 C   0  0  0  0  0  0  0  0  0  0  0  0
   12.8352   -2.2375    0.0000 C   0  0  0  0  0  0  0  0  0  0  0  0
   12.8300   -1.4326    0.0000 C   0  0  0  0  0  0  0  0  0  0  0  0
   13.6720   -0.9870    0.0000 N   0  0  0  0  0  0  0  0  0  0  0  0
    7.8504   -0.1736    0.0000 O   0  0  0  0  0  0  0  0  0  0  0  0
  1  2  1  0  0  0  0
  3  4  1  0  0  0  0
  3  2  1  0  0  0  0
  4  5  1  0  0  0  0
  5 40  1  0  0  0  0
  6  7  1  0  0  0  0
  6  1  1  0  0  0  0
  7  8  1  0  0  0  0
  9  8  1  0  0  0  0
 10 11  1  0  0  0  0
 10 18  1  0  0  0  0
 12 13  1  0  0  0  0
 12 11  1  0  0  0  0
 13 14  1  0  0  0  0
 15 16  1  0  0  0  0
 15 14  1  0  0  0  0
 16 17  1  0  0  0  0
 19 20  1  0  0  0  0
 20 21  2  0  0  0  0
 20 40  1  0  0  0  0
 21 22  1  0  0  0  0
 22 23  2  0  0  0  0
 23 24  1  0  0  0  0
 24 25  2  0  0  0  0
 25 26  1  0  0  0  0
 26 27  2  0  0  0  0
 28 26  1  0  0  0  0
 28 29  1  0  0  0  0
 29 30  1  0  0  0  0
 29 47  2  0  0  0  0
 30 31  2  0  0  0  0
 31 32  1  0  0  0  0
 32 33  2  0  0  0  0
 32 34  1  0  0  0  0
 33 35  1  0  0  0  0
 34 38  2  0  0  0  0
 35 36  2  0  0  0  0
 36 37  1  0  0  0  0
 38 36  1  0  0  0  0
 38 17  1  0  0  0  0
 39 23  1  0  0  0  0
 40 39  2  0  0  0  0
 41 42  1  0  0  0  0
 41 43  1  0  0  0  0
 43 19  1  0  0  0  0
 44 45  1  0  0  0  0
 44 37  1  0  0  0  0
 45 46  1  0  0  0  0
M  END
> <ID>
SCHEMBL21155914

> <InChIKey>
SDGIJJBYJVVCBJ-MXWIWYRXSA-N

> <MW>
650.901

> <Series_Name>
Series_8

$$$$
SCHEMBL21155915
  Mrv1719007191919562D 0   0.00000     0.00000     0

 32 35  0  0  0  0              1 V2000 
   13.3360   -2.4100    0.0000 O   0  0  0  0  0  0  0  0  0  0  0  0
   13.3390   -3.2398    0.0000 C   0  0  0  0  0  0  0  0  0  0  0  0
   14.0484   -3.6652    0.0000 C   0  0  0  0  0  0  0  0  0  0  0  0
   14.7109   -3.2378    0.0000 N   0  0  0  0  0  0  0  0  0  0  0  0
   15.4357   -3.6452    0.0000 C   0  0  0  0  0  0  0  0  0  0  0  0
   16.1678   -3.2546    0.0000 C   0  0  0  0  0  0  0  0  0  0  0  0
   16.1873   -2.4298    0.0000 C   0  0  0  0  0  0  0  0  0  0  0  0
   16.9308   -2.0514    0.0000 C   0  0  0  0  0  0  0  0  0  0  0  0
   17.5842   -2.4356    0.0000 C   0  0  0  0  0  0  0  0  0  0  0  0
   18.3554   -2.0552    0.0000 C   0  0  0  0  0  0  0  0  0  0  0  0
   18.9946   -2.4257    0.0000 C   0  0  0  0  0  0  0  0  0  0  0  0
   19.7563   -2.0469    0.0000 C   0  0  0  0  0  0  0  0  0  0  0  0
   19.6787   -1.1976    0.0000 O   0  0  0  0  0  0  0  0  0  0  0  0
   20.9935   -2.0453    0.0000 C   0  0  0  0  0  0  0  0  0  0  0  0
   21.0388   -1.1976    0.0000 O   0  0  0  0  0  0  0  0  0  0  0  0
   21.7411   -2.4188    0.0000 C   0  0  0  0  0  0  0  0  0  0  0  0
   22.4893   -2.0356    0.0000 C   0  0  0  0  0  0  0  0  0  0  0  0
   23.1913   -2.4270    0.0000 C   0  0  0  0  0  0  0  0  0  0  0  0
   23.8733   -2.0297    0.0000 C   0  0  0  0  0  0  0  0  0  0  0  0
   25.2138   -1.9086    0.0000 C   0  0  0  0  0  0  0  0  0  0  0  0
   24.6230   -2.4204    0.0000 C   0  0  0  0  0  0  0  0  0  0  0  0
   24.6231   -3.2618    0.0000 C   0  0  0  0  0  0  0  0  0  0  0  0
   25.3917   -2.1544    0.0000 C   0  0  0  0  0  0  0  0  0  0  0  0
   25.9277   -2.8482    0.0000 C   0  0  0  0  0  0  0  0  0  0  0  0
   25.3003   -3.6526    0.0000 C   0  0  0  0  0  0  0  0  0  0  0  0
   23.1938   -3.2586    0.0000 C   0  0  0  0  0  0  0  0  0  0  0  0
   23.8849   -3.6451    0.0000 C   0  0  0  0  0  0  0  0  0  0  0  0
   20.3267   -2.3995    0.0000 C   0  0  0  0  0  0  0  0  0  0  0  0
   17.5775   -3.2197    0.0000 C   0  0  0  0  0  0  0  0  0  0  0  0
   16.8826   -3.6435    0.0000 C   0  0  0  0  0  0  0  0  0  0  0  0
   14.0334   -2.0438    0.0000 C   0  0  0  0  0  0  0  0  0  0  0  0
   14.7464   -2.4448    0.0000 C   0  0  0  0  0  0  0  0  0  0  0  0
  1  2  1  0  0  0  0
  3  4  1  0  0  0  0
  3  2  1  0  0  0  0
  4 32  1  0  0  0  0
  5  6  1  0  0  0  0
  5  4  1  0  0  0  0
  6  7  2  0  0  0  0
  6 30  1  0  0  0  0
  7  8  1  0  0  0  0
  8  9  2  0  0  0  0
  9 10  1  0  0  0  0
 10 11  2  0  0  0  0
 12 11  1  0  0  0  0
 12 28  1  0  0  0  0
 13 12  2  0  0  0  0
 14 15  2  0  0  0  0
 14 16  1  0  0  0  0
 16 17  2  0  0  0  0
 17 18  1  0  0  0  0
 18 19  2  0  0  0  0
 18 26  1  0  0  0  0
 19 21  1  0  0  0  0
 20 21  1  0  0  0  0
 20 23  1  0  0  0  0
 21 22  2  0  0  0  0
 22 25  1  0  0  0  0
 24 23  1  0  0  0  0
 25 24  2  0  0  0  0
 26 27  2  0  0  0  0
 27 22  1  0  0  0  0
 28 14  1  0  0  0  0
 29  9  1  0  0  0  0
 30 29  2  0  0  0  0
 31  1  1  0  0  0  0
 31 32  1  0  0  0  0
M  END
> <ID>
SCHEMBL21155915

> <InChIKey>
GEOQFRRWXZZFOS-IFQMDVHZSA-N

> <MW>
427.544

> <Series_Name>
Series_8

$$$$
SCHEMBL21155916
  Mrv1719007191919562D 0   0.00000     0.00000     0

 38 40  0  0  0  0              1 V2000 
    0.1509   -3.0355    0.0000 C   0  0  0  0  0  0  0  0  0  0  0  0
    0.8589   -2.6052    0.0000 C   0  0  0  0  0  0  0  0  0  0  0  0
    1.5703   -2.9825    0.0000 O   0  0  0  0  0  0  0  0  0  0  0  0
    0.2845   -3.8257    0.0000 N   0  0  0  0  0  0  0  0  0  0  0  0
   12.2109   -2.5847    0.0000 C   0  0  0  0  0  0  0  0  0  0  0  0
   11.4769   -2.9614    0.0000 O   0  0  0  0  0  0  0  0  0  0  0  0
   12.9200   -3.0002    0.0000 C   0  0  0  0  0  0  0  0  0  0  0  0
   13.1955   -3.4724    0.0000 N   0  0  0  0  0  0  0  0  0  0  0  0
   12.9243   -3.9470    0.0000 Cl  0  0  0  0  0  0  0  0  0  0  0  0
    2.2893   -2.5975    0.0000 C   0  0  0  0  0  0  0  0  0  0  0  0
    2.9869   -3.0184    0.0000 C   0  0  0  0  0  0  0  0  0  0  0  0
    2.2825   -1.7716    0.0000 C   0  0  0  0  0  0  0  0  0  0  0  0
    1.5727   -1.3474    0.0000 C   0  0  0  0  0  0  0  0  0  0  0  0
    1.5782   -0.5150    0.0000 C   0  0  0  0  0  0  0  0  0  0  0  0
    2.9855   -1.3455    0.0000 C   0  0  0  0  0  0  0  0  0  0  0  0
    3.6933   -1.7608    0.0000 C   0  0  0  0  0  0  0  0  0  0  0  0
    4.3982   -1.3411    0.0000 C   0  0  0  0  0  0  0  0  0  0  0  0
    5.1149   -1.7530    0.0000 C   0  0  0  0  0  0  0  0  0  0  0  0
    5.7859   -1.3468    0.0000 C   0  0  0  0  0  0  0  0  0  0  0  0
    6.5376   -1.7522    0.0000 C   0  0  0  0  0  0  0  0  0  0  0  0
    7.2551   -1.3291    0.0000 C   0  0  0  0  0  0  0  0  0  0  0  0
    7.9560   -1.7543    0.0000 C   0  0  0  0  0  0  0  0  0  0  0  0
    8.6655   -1.3319    0.0000 C   0  0  0  0  0  0  0  0  0  0  0  0
    9.3740   -1.7507    0.0000 C   0  0  0  0  0  0  0  0  0  0  0  0
   10.0826   -1.3252    0.0000 C   0  0  0  0  0  0  0  0  0  0  0  0
   10.0825   -0.4947    0.0000 C   0  0  0  0  0  0  0  0  0  0  0  0
   10.7972   -0.0831    0.0000 C   0  0  0  0  0  0  0  0  0  0  0  0
   11.4853   -0.4898    0.0000 C   0  0  0  0  0  0  0  0  0  0  0  0
   11.4962   -1.3130    0.0000 C   0  0  0  0  0  0  0  0  0  0  0  0
   10.7847   -2.5813    0.0000 C   0  0  0  0  0  0  0  0  0  0  0  0
   10.0897   -3.0040    0.0000 C   0  0  0  0  0  0  0  0  0  0  0  0
    9.3681   -2.5835    0.0000 C   0  0  0  0  0  0  0  0  0  0  0  0
    3.6958   -2.5999    0.0000 C   0  0  0  0  0  0  0  0  0  0  0  0
   10.7853   -1.7419    0.0000 C   0  0  0  0  0  0  0  0  0  0  0  0
    2.9854   -0.5088    0.0000 C   0  0  0  0  0  0  0  0  0  0  0  0
    2.2606   -0.1030    0.0000 C   0  0  0  0  0  0  0  0  0  0  0  0
    5.8070   -0.4532    0.0000 O   0  0  0  0  0  0  0  0  0  0  0  0
    7.2192   -0.4532    0.0000 O   0  0  0  0  0  0  0  0  0  0  0  0
  1  2  1  0  0  0  0
  2  3  1  0  0  0  0
  4  1  1  0  0  0  0
  5  6  1  0  0  0  0
  5  7  1  0  0  0  0
  6 30  1  0  0  0  0
  8  9  1  0  0  0  0
  8  7  1  0  0  0  0
 10 11  1  0  0  0  0
 10  3  1  0  0  0  0
 11 33  2  0  0  0  0
 12 10  2  0  0  0  0
 12 13  1  0  0  0  0
 12 15  1  0  0  0  0
 13 14  2  0  0  0  0
 14 36  1  0  0  0  0
 15 16  2  0  0  0  0
 16 17  1  0  0  0  0
 17 18  2  0  0  0  0
 18 19  1  0  0  0  0
 19 37  2  0  0  0  0
 20 21  1  0  0  0  0
 20 19  1  0  0  0  0
 21 38  2  0  0  0  0
 22 23  2  0  0  0  0
 22 21  1  0  0  0  0
 23 24  1  0  0  0  0
 24 25  2  0  0  0  0
 24 32  1  0  0  0  0
 25 26  1  0  0  0  0
 26 27  2  0  0  0  0
 27 28  1  0  0  0  0
 28 29  2  0  0  0  0
 30 34  2  0  0  0  0
 31 30  1  0  0  0  0
 32 31  2  0  0  0  0
 33 16  1  0  0  0  0
 34 25  1  0  0  0  0
 34 29  1  0  0  0  0
 35 15  1  0  0  0  0
M  END
> <ID>
SCHEMBL21155916

> <InChIKey>
QUSATDSRITUGSQ-BAFAHPNBSA-N

> <MW>
533.07

> <Series_Name>
Series_8

$$$$
SCHEMBL21155929
  Mrv1719007191919572D 0   0.00000     0.00000     0

 46 47  0  0  0  0              1 V2000 
    1.6063   -2.8366    0.0000 C   0  0  0  0  0  0  0  0  0  0  0  0
    0.8528   -2.4517    0.0000 O   0  0  0  0  0  0  0  0  0  0  0  0
    2.2811   -2.1852    0.0000 N   0  0  0  0  0  0  0  0  0  0  0  0
    1.5563   -3.7096    0.0000 O   0  0  0  0  0  0  0  0  0  0  0  0
   16.5364   -2.3052    0.0000 C   0  0  0  0  0  0  0  0  0  0  0  0
   16.7893   -2.5475    0.0000 C   0  0  0  0  0  0  0  0  0  0  0  0
   17.3287   -2.7948    0.0000 C   0  0  0  0  0  0  0  0  0  0  0  0
   18.0362   -2.4091    0.0000 O   0  0  0  0  0  0  0  0  0  0  0  0
   17.3326   -3.6669    0.0000 O   0  0  0  0  0  0  0  0  0  0  0  0
    4.4131   -2.8355    0.0000 O   0  0  0  0  0  0  0  0  0  0  0  0
    5.1612   -2.4255    0.0000 C   0  0  0  0  0  0  0  0  0  0  0  0
    5.1672   -1.5377    0.0000 C   0  0  0  0  0  0  0  0  0  0  0  0
    4.4261   -1.1302    0.0000 C   0  0  0  0  0  0  0  0  0  0  0  0
    5.8836   -1.1358    0.0000 C   0  0  0  0  0  0  0  0  0  0  0  0
    7.3255   -1.1626    0.0000 C   0  0  0  0  0  0  0  0  0  0  0  0
    6.6001   -1.5395    0.0000 C   0  0  0  0  0  0  0  0  0  0  0  0
   10.2119   -0.3624    0.0000 O   0  0  0  0  0  0  0  0  0  0  0  0
   10.2248   -1.1615    0.0000 C   0  0  0  0  0  0  0  0  0  0  0  0
   10.9373   -1.5585    0.0000 C   0  0  0  0  0  0  0  0  0  0  0  0
   11.6445   -1.1337    0.0000 C   0  0  0  0  0  0  0  0  0  0  0  0
   12.3550   -1.5552    0.0000 C   0  0  0  0  0  0  0  0  0  0  0  0
   13.0561   -1.1372    0.0000 C   0  0  0  0  0  0  0  0  0  0  0  0
   13.7826   -1.5411    0.0000 C   0  0  0  0  0  0  0  0  0  0  0  0
   14.4740   -1.1370    0.0000 C   0  0  0  0  0  0  0  0  0  0  0  0
   13.7923   -2.4097    0.0000 C   0  0  0  0  0  0  0  0  0  0  0  0
   14.4972   -2.8568    0.0000 O   0  0  0  0  0  0  0  0  0  0  0  0
   12.3495   -2.4018    0.0000 C   0  0  0  0  0  0  0  0  0  0  0  0
   13.0430   -2.8219    0.0000 C   0  0  0  0  0  0  0  0  0  0  0  0
    9.4925   -1.5529    0.0000 C   0  0  0  0  0  0  0  0  0  0  0  0
    8.7478   -1.1596    0.0000 C   0  0  0  0  0  0  0  0  0  0  0  0
    8.0398   -1.5593    0.0000 C   0  0  0  0  0  0  0  0  0  0  0  0
    6.6010   -2.3856    0.0000 C   0  0  0  0  0  0  0  0  0  0  0  0
    5.8964   -2.8219    0.0000 C   0  0  0  0  0  0  0  0  0  0  0  0
    8.7196   -0.3198    0.0000 O   0  0  0  0  0  0  0  0  0  0  0  0
    2.9608   -2.8035    0.0000 C   0  0  0  0  0  0  0  0  0  0  0  0
    3.7282   -2.4094    0.0000 C   0  0  0  0  0  0  0  0  0  0  0  0
   15.2059   -2.3951    0.0000 C   0  0  0  0  0  0  0  0  0  0  0  0
   15.9488   -2.8044    0.0000 C   0  0  0  0  0  0  0  0  0  0  0  0
    0.9393   -1.4898    0.0000 C   0  0  0  0  0  0  0  0  0  0  0  0
    0.1236   -1.1513    0.0000 C   0  0  0  0  0  0  0  0  0  0  0  0
    1.2791   -0.8634    0.0000 C   0  0  0  0  0  0  0  0  0  0  0  0
    1.5962   -1.1638    0.0000 C   0  0  0  0  0  0  0  0  0  0  0  0
   17.3571   -1.1391    0.0000 C   0  0  0  0  0  0  0  0  0  0  0  0
   18.0829   -1.5056    0.0000 C   0  0  0  0  0  0  0  0  0  0  0  0
   18.4800   -0.8314    0.0000 C   0  0  0  0  0  0  0  0  0  0  0  0
   18.7668   -1.1299    0.0000 C   0  0  0  0  0  0  0  0  0  0  0  0
  1  2  1  0  0  0  0
  1  3  1  0  0  0  0
  2 39  1  0  0  0  0
  4  1  2  0  0  0  0
  5  6  1  0  0  0  0
  6  7  1  0  0  0  0
  7  9  2  0  0  0  0
  8  7  1  0  0  0  0
  8 44  1  0  0  0  0
 10 11  1  0  0  0  0
 11 33  2  0  0  0  0
 12 11  1  0  0  0  0
 12 14  2  0  0  0  0
 13 12  1  0  0  0  0
 14 16  1  0  0  0  0
 15 16  1  0  0  0  0
 15 31  2  0  0  0  0
 16 32  2  0  0  0  0
 17 18  2  0  0  0  0
 18 19  1  0  0  0  0
 18 29  1  0  0  0  0
 19 20  2  0  0  0  0
 21 20  1  0  0  0  0
 21 22  1  0  0  0  0
 22 23  2  0  0  0  0
 23 24  1  0  0  0  0
 25 23  1  0  0  0  0
 25 26  1  0  0  0  0
 26 37  1  0  0  0  0
 27 28  1  0  0  0  0
 27 21  2  0  0  0  0
 28 25  2  0  0  0  0
 30 29  1  0  0  0  0
 30 31  1  0  0  0  0
 33 32  1  0  0  0  0
 34 30  2  0  0  0  0
 35 36  1  0  0  0  0
 35  3  1  0  0  0  0
 36 10  1  0  0  0  0
 38  5  1  0  0  0  0
 38 37  1  0  0  0  0
 39 40  1  0  0  0  0
 41 39  1  0  0  0  0
 42 39  1  0  0  0  0
 43 44  1  0  0  0  0
 45 44  1  0  0  0  0
 46 44  1  0  0  0  0
M  END
> <ID>
SCHEMBL21155929

> <InChIKey>
WEDRNDGDYPKCCK-UNZYHPAISA-N

> <MW>
635.798

> <Series_Name>
Series_8

$$$$
SCHEMBL21155930
  Mrv1719007191919572D 0   0.00000     0.00000     0

 50 51  0  0  0  0              1 V2000 
    1.7001   -2.7808    0.0000 C   0  0  0  0  0  0  0  0  0  0  0  0
    0.8950   -2.4079    0.0000 O   0  0  0  0  0  0  0  0  0  0  0  0
    1.5769   -3.6864    0.0000 O   0  0  0  0  0  0  0  0  0  0  0  0
   16.5632   -2.1117    0.0000 C   0  0  0  0  0  0  0  0  0  0  0  0
   16.4248   -2.6054    0.0000 C   0  0  0  0  0  0  0  0  0  0  0  0
   16.8078   -2.5799    0.0000 C   0  0  0  0  0  0  0  0  0  0  0  0
   17.2747   -2.8224    0.0000 C   0  0  0  0  0  0  0  0  0  0  0  0
   18.0485   -2.4292    0.0000 O   0  0  0  0  0  0  0  0  0  0  0  0
   17.3454   -3.6864    0.0000 O   0  0  0  0  0  0  0  0  0  0  0  0
   12.3344   -2.4012    0.0000 C   0  0  0  0  0  0  0  0  0  0  0  0
   12.3388   -1.5571    0.0000 C   0  0  0  0  0  0  0  0  0  0  0  0
   10.8938   -1.5529    0.0000 C   0  0  0  0  0  0  0  0  0  0  0  0
   11.6240   -1.1417    0.0000 C   0  0  0  0  0  0  0  0  0  0  0  0
   10.2080   -1.1424    0.0000 C   0  0  0  0  0  0  0  0  0  0  0  0
    9.4794   -1.5557    0.0000 C   0  0  0  0  0  0  0  0  0  0  0  0
    8.7563   -1.1422    0.0000 C   0  0  0  0  0  0  0  0  0  0  0  0
    8.0556   -1.5542    0.0000 C   0  0  0  0  0  0  0  0  0  0  0  0
    6.6268   -1.5558    0.0000 C   0  0  0  0  0  0  0  0  0  0  0  0
    6.6324   -2.3643    0.0000 C   0  0  0  0  0  0  0  0  0  0  0  0
    5.8493   -2.7972    0.0000 C   0  0  0  0  0  0  0  0  0  0  0  0
    4.4749   -2.8341    0.0000 O   0  0  0  0  0  0  0  0  0  0  0  0
    5.2130   -2.3942    0.0000 C   0  0  0  0  0  0  0  0  0  0  0  0
    4.4749   -1.1294    0.0000 O   0  0  0  0  0  0  0  0  0  0  0  0
    5.2028   -1.5361    0.0000 C   0  0  0  0  0  0  0  0  0  0  0  0
    5.9506   -1.1400    0.0000 C   0  0  0  0  0  0  0  0  0  0  0  0
    7.3409   -1.1383    0.0000 C   0  0  0  0  0  0  0  0  0  0  0  0
    8.7792   -0.3196    0.0000 O   0  0  0  0  0  0  0  0  0  0  0  0
   10.1643   -0.2983    0.0000 O   0  0  0  0  0  0  0  0  0  0  0  0
   13.0069   -1.1613    0.0000 C   0  0  0  0  0  0  0  0  0  0  0  0
   13.7498   -1.5522    0.0000 C   0  0  0  0  0  0  0  0  0  0  0  0
   14.4687   -1.1507    0.0000 O   0  0  0  0  0  0  0  0  0  0  0  0
   13.7532   -2.4068    0.0000 C   0  0  0  0  0  0  0  0  0  0  0  0
   14.4687   -2.8341    0.0000 O   0  0  0  0  0  0  0  0  0  0  0  0
   13.0090   -2.8204    0.0000 C   0  0  0  0  0  0  0  0  0  0  0  0
   15.2079   -2.4149    0.0000 C   0  0  0  0  0  0  0  0  0  0  0  0
   15.9500   -2.8221    0.0000 C   0  0  0  0  0  0  0  0  0  0  0  0
    2.1989   -2.2914    0.0000 C   0  0  0  0  0  0  0  0  0  0  0  0
    2.4799   -2.5496    0.0000 C   0  0  0  0  0  0  0  0  0  0  0  0
    3.0791   -2.7987    0.0000 C   0  0  0  0  0  0  0  0  0  0  0  0
    3.8085   -2.4132    0.0000 C   0  0  0  0  0  0  0  0  0  0  0  0
   18.1274   -1.4642    0.0000 C   0  0  0  0  0  0  0  0  0  0  0  0
   17.3134   -1.1523    0.0000 C   0  0  0  0  0  0  0  0  0  0  0  0
   18.4753   -0.8417    0.0000 C   0  0  0  0  0  0  0  0  0  0  0  0
   18.7517   -1.1621    0.0000 C   0  0  0  0  0  0  0  0  0  0  0  0
    0.9285   -1.5017    0.0000 C   0  0  0  0  0  0  0  0  0  0  0  0
    0.1385   -1.1295    0.0000 C   0  0  0  0  0  0  0  0  0  0  0  0
    1.3056   -0.8310    0.0000 C   0  0  0  0  0  0  0  0  0  0  0  0
    1.5982   -1.1273    0.0000 C   0  0  0  0  0  0  0  0  0  0  0  0
    3.7397   -1.5584    0.0000 C   0  0  0  0  0  0  0  0  0  0  0  0
   15.1928   -1.5677    0.0000 C   0  0  0  0  0  0  0  0  0  0  0  0
  1  2  1  0  0  0  0
  1 37  1  0  0  0  0
  3  1  2  0  0  0  0
  4  5  1  0  0  0  0
  6  4  1  0  0  0  0
  6  7  1  0  0  0  0
  7  9  2  0  0  0  0
  8  7  1  0  0  0  0
  8 41  1  0  0  0  0
 10 11  2  0  0  0  0
 10 34  1  0  0  0  0
 11 29  1  0  0  0  0
 12 13  2  0  0  0  0
 13 11  1  0  0  0  0
 14 12  1  0  0  0  0
 14 15  1  0  0  0  0
 15 16  1  0  0  0  0
 16 27  2  0  0  0  0
 17 16  1  0  0  0  0
 18 19  2  0  0  0  0
 18 26  1  0  0  0  0
 20 19  1  0  0  0  0
 21 22  1  0  0  0  0
 22 20  2  0  0  0  0
 23 24  1  0  0  0  0
 23 49  1  0  0  0  0
 24 25  2  0  0  0  0
 24 22  1  0  0  0  0
 25 18  1  0  0  0  0
 26 17  2  0  0  0  0
 28 14  2  0  0  0  0
 29 30  2  0  0  0  0
 30 31  1  0  0  0  0
 30 32  1  0  0  0  0
 31 50  1  0  0  0  0
 32 33  1  0  0  0  0
 34 32  2  0  0  0  0
 35 33  1  0  0  0  0
 36  5  1  0  0  0  0
 36 35  1  0  0  0  0
 37 38  1  0  0  0  0
 38 39  1  0  0  0  0
 39 40  1  0  0  0  0
 40 21  1  0  0  0  0
 41 42  1  0  0  0  0
 41 43  1  0  0  0  0
 44 41  1  0  0  0  0
 45 46  1  0  0  0  0
 45 47  1  0  0  0  0
 45 48  1  0  0  0  0
 45  2  1  0  0  0  0
M  END
> <ID>
SCHEMBL21155930

> <InChIKey>
LZQASNOUIJAKDQ-NWILIBCHSA-N

> <MW>
694.862

> <Series_Name>
Series_8

$$$$
SCHEMBL21155934
  Mrv1719007191919572D 0   0.00000     0.00000     0

 38 39  0  0  0  0              1 V2000 
   10.2183   -0.3002    0.0000 O   0  0  0  0  0  0  0  0  0  0  0  0
    8.7386   -0.3217    0.0000 O   0  0  0  0  0  0  0  0  0  0  0  0
    1.1580   -0.7076    0.0000 C   0  0  0  0  0  0  0  0  0  0  0  0
    4.3318   -1.0294    0.0000 C   0  0  0  0  0  0  0  0  0  0  0  0
   14.4320   -1.0294    0.0000 C   0  0  0  0  0  0  0  0  0  0  0  0
    0.0215   -1.0507    0.0000 C   0  0  0  0  0  0  0  0  0  0  0  0
    1.4797   -1.0507    0.0000 C   0  0  0  0  0  0  0  0  0  0  0  0
   16.3621   -2.4447    0.0000 C   0  0  0  0  0  0  0  0  0  0  0  0
   10.2361   -1.0365    0.0000 C   0  0  0  0  0  0  0  0  0  0  0  0
    8.7565   -1.0507    0.0000 C   0  0  0  0  0  0  0  0  0  0  0  0
    5.0823   -1.4296    0.0000 C   0  0  0  0  0  0  0  0  0  0  0  0
    6.5191   -1.4296    0.0000 C   0  0  0  0  0  0  0  0  0  0  0  0
    5.8115   -1.0294    0.0000 C   0  0  0  0  0  0  0  0  0  0  0  0
   12.3091   -1.4510    0.0000 C   0  0  0  0  0  0  0  0  0  0  0  0
   11.6014   -1.0294    0.0000 C   0  0  0  0  0  0  0  0  0  0  0  0
   10.9152   -1.4368    0.0000 C   0  0  0  0  0  0  0  0  0  0  0  0
    9.4569   -1.4368    0.0000 C   0  0  0  0  0  0  0  0  0  0  0  0
   13.7459   -1.4296    0.0000 C   0  0  0  0  0  0  0  0  0  0  0  0
   13.0167   -1.0294    0.0000 C   0  0  0  0  0  0  0  0  0  0  0  0
    7.9988   -1.4368    0.0000 C   0  0  0  0  0  0  0  0  0  0  0  0
    7.2697   -1.0507    0.0000 C   0  0  0  0  0  0  0  0  0  0  0  0
    5.0681   -2.3017    0.0000 C   0  0  0  0  0  0  0  0  0  0  0  0
    6.2832   -2.4661    0.0000 C   0  0  0  0  0  0  0  0  0  0  0  0
    5.7686   -2.7234    0.0000 C   0  0  0  0  0  0  0  0  0  0  0  0
   13.7459   -2.3017    0.0000 C   0  0  0  0  0  0  0  0  0  0  0  0
   12.3091   -2.2946    0.0000 C   0  0  0  0  0  0  0  0  0  0  0  0
   13.0167   -2.7234    0.0000 C   0  0  0  0  0  0  0  0  0  0  0  0
   15.8688   -2.7020    0.0000 C   0  0  0  0  0  0  0  0  0  0  0  0
   15.1611   -2.2946    0.0000 C   0  0  0  0  0  0  0  0  0  0  0  0
    3.6455   -2.3160    0.0000 C   0  0  0  0  0  0  0  0  0  0  0  0
    2.9378   -2.7020    0.0000 C   0  0  0  0  0  0  0  0  0  0  0  0
    1.4797   -2.7234    0.0000 C   0  0  0  0  0  0  0  0  0  0  0  0
    1.4904   -3.6241    0.0000 O   0  0  0  0  0  0  0  0  0  0  0  0
    0.8131   -1.3903    0.0000 C   0  0  0  0  0  0  0  0  0  0  0  0
    2.1466   -2.3423    0.0000 N   0  0  0  0  0  0  0  0  0  0  0  0
    0.7827   -2.3589    0.0000 O   0  0  0  0  0  0  0  0  0  0  0  0
    4.3532   -2.7556    0.0000 O   0  0  0  0  0  0  0  0  0  0  0  0
   14.4750   -2.7771    0.0000 O   0  0  0  0  0  0  0  0  0  0  0  0
  1  9  2  0  0  0  0
  2 10  2  0  0  0  0
  4 11  1  0  0  0  0
 12 13  1  0  0  0  0
 11 13  2  0  0  0  0
 14 15  1  0  0  0  0
 15 16  2  0  0  0  0
  9 16  1  0  0  0  0
  9 17  1  0  0  0  0
 10 17  1  0  0  0  0
  5 18  1  0  0  0  0
 18 19  2  0  0  0  0
 14 19  1  0  0  0  0
 10 20  1  0  0  0  0
 20 21  2  0  0  0  0
 12 21  1  0  0  0  0
 11 22  1  0  0  0  0
 12 23  2  0  0  0  0
 23 24  1  0  0  0  0
 22 24  2  0  0  0  0
 18 25  1  0  0  0  0
 14 26  2  0  0  0  0
 26 27  1  0  0  0  0
 25 27  2  0  0  0  0
  8 28  1  0  0  0  0
 28 29  1  0  0  0  0
 30 31  1  0  0  0  0
 32 33  2  0  0  0  0
  3 34  1  0  0  0  0
  7 34  1  0  0  0  0
  6 34  1  0  0  0  0
 31 35  1  0  0  0  0
 32 35  1  0  0  0  0
 32 36  1  0  0  0  0
 34 36  1  0  0  0  0
 22 37  1  0  0  0  0
 30 37  1  0  0  0  0
 25 38  1  0  0  0  0
 29 38  1  0  0  0  0
M  END
> <ID>
SCHEMBL21155934

> <InChIKey>
AKUUATZPCITZQI-QHKWOANTSA-N

> <MW>
521.654

> <Series_Name>
Series_8

$$$$
SCHEMBL21155939
  Mrv1719007191919572D 0   0.00000     0.00000     0

 38 39  0  0  0  0              1 V2000 
    5.8847   -2.3908    0.0000 C   0  0  0  0  0  0  0  0  0  0  0  0
    5.1776   -2.8101    0.0000 O   0  0  0  0  0  0  0  0  0  0  0  0
    5.8748   -1.5779    0.0000 C   0  0  0  0  0  0  0  0  0  0  0  0
    6.5782   -1.1478    0.0000 C   0  0  0  0  0  0  0  0  0  0  0  0
    7.3073   -1.5492    0.0000 C   0  0  0  0  0  0  0  0  0  0  0  0
    7.9518   -1.1647    0.0000 C   0  0  0  0  0  0  0  0  0  0  0  0
    8.6914   -1.5301    0.0000 C   0  0  0  0  0  0  0  0  0  0  0  0
    9.3927   -0.2887    0.0000 O   0  0  0  0  0  0  0  0  0  0  0  0
    9.4241   -1.1477    0.0000 C   0  0  0  0  0  0  0  0  0  0  0  0
   10.1173   -1.5340    0.0000 C   0  0  0  0  0  0  0  0  0  0  0  0
   10.7906   -1.1658    0.0000 C   0  0  0  0  0  0  0  0  0  0  0  0
   10.8363   -0.2887    0.0000 O   0  0  0  0  0  0  0  0  0  0  0  0
   11.5541   -1.5362    0.0000 C   0  0  0  0  0  0  0  0  0  0  0  0
   12.2532   -1.1404    0.0000 C   0  0  0  0  0  0  0  0  0  0  0  0
   12.9323   -1.5367    0.0000 C   0  0  0  0  0  0  0  0  0  0  0  0
   13.6608   -1.1534    0.0000 C   0  0  0  0  0  0  0  0  0  0  0  0
   14.3893   -1.5579    0.0000 C   0  0  0  0  0  0  0  0  0  0  0  0
   14.3926   -2.3888    0.0000 C   0  0  0  0  0  0  0  0  0  0  0  0
   15.0515   -2.8101    0.0000 O   0  0  0  0  0  0  0  0  0  0  0  0
   13.6717   -2.8085    0.0000 C   0  0  0  0  0  0  0  0  0  0  0  0
   13.6464   -3.6185    0.0000 O   0  0  0  0  0  0  0  0  0  0  0  0
   12.9495   -2.3945    0.0000 C   0  0  0  0  0  0  0  0  0  0  0  0
    7.2984   -2.3703    0.0000 C   0  0  0  0  0  0  0  0  0  0  0  0
    6.5634   -3.6185    0.0000 O   0  0  0  0  0  0  0  0  0  0  0  0
    6.5958   -2.8131    0.0000 C   0  0  0  0  0  0  0  0  0  0  0  0
    1.2400   -2.4684    0.0000 I   0  0  0  0  0  0  0  0  0  0  0  0
    2.3624   -2.8053    0.0000 C   0  0  0  0  0  0  0  0  0  0  0  0
    3.0219   -2.3674    0.0000 O   0  0  0  0  0  0  0  0  0  0  0  0
   15.7996   -2.3880    0.0000 C   0  0  0  0  0  0  0  0  0  0  0  0
   16.5196   -2.8101    0.0000 C   0  0  0  0  0  0  0  0  0  0  0  0
   17.1879   -2.3867    0.0000 O   0  0  0  0  0  0  0  0  0  0  0  0
    4.4419   -2.3944    0.0000 C   0  0  0  0  0  0  0  0  0  0  0  0
    3.7233   -2.7836    0.0000 C   0  0  0  0  0  0  0  0  0  0  0  0
   17.8893   -2.7837    0.0000 C   0  0  0  0  0  0  0  0  0  0  0  0
   18.5825   -2.3915    0.0000 C   0  0  0  0  0  0  0  0  0  0  0  0
   19.5072   -2.8005    0.0000 N   0  0  0  0  0  0  0  0  0  0  0  0
    5.8677   -4.0389    0.0000 C   0  0  0  0  0  0  0  0  0  0  0  0
   14.3874   -4.0395    0.0000 C   0  0  0  0  0  0  0  0  0  0  0  0
  1  2  1  0  0  0  0
  1 25  1  0  0  0  0
  2 32  1  0  0  0  0
  3  1  2  0  0  0  0
  3  4  1  0  0  0  0
  4  5  2  0  0  0  0
  5  6  1  0  0  0  0
  6  7  2  0  0  0  0
  8  9  2  0  0  0  0
  9 10  1  0  0  0  0
  9  7  1  0  0  0  0
 10 11  1  0  0  0  0
 11 12  2  0  0  0  0
 11 13  1  0  0  0  0
 13 14  2  0  0  0  0
 14 15  1  0  0  0  0
 15 16  2  0  0  0  0
 15 22  1  0  0  0  0
 16 17  1  0  0  0  0
 17 18  2  0  0  0  0
 18 19  1  0  0  0  0
 19 29  1  0  0  0  0
 20 18  1  0  0  0  0
 20 21  1  0  0  0  0
 21 38  1  0  0  0  0
 22 20  2  0  0  0  0
 23  5  1  0  0  0  0
 24 25  1  0  0  0  0
 25 23  2  0  0  0  0
 26 27  1  0  0  0  0
 28 27  1  0  0  0  0
 29 30  1  0  0  0  0
 31 30  1  0  0  0  0
 32 33  1  0  0  0  0
 33 28  1  0  0  0  0
 34 35  1  0  0  0  0
 34 31  1  0  0  0  0
 35 36  1  0  0  0  0
 37 24  1  0  0  0  0
M  END
> <ID>
SCHEMBL21155939

> <InChIKey>
CFQHAWIIITVCTL-FCXRPNKRSA-N

> <MW>
639.483

> <Series_Name>
Series_8

$$$$
SCHEMBL21155951
  Mrv1719007191919582D 0   0.00000     0.00000     0

 38 41  0  0  0  0              1 V2000 
    2.1474   -2.6607    0.0000 O   0  0  0  0  0  0  0  0  0  0  0  0
    2.8507   -2.2913    0.0000 C   0  0  0  0  0  0  0  0  0  0  0  0
    2.8569   -1.4663    0.0000 C   0  0  0  0  0  0  0  0  0  0  0  0
    3.5628   -1.0382    0.0000 C   0  0  0  0  0  0  0  0  0  0  0  0
    4.2933   -1.4617    0.0000 C   0  0  0  0  0  0  0  0  0  0  0  0
    5.6845   -1.4798    0.0000 C   0  0  0  0  0  0  0  0  0  0  0  0
    6.3962   -1.0397    0.0000 C   0  0  0  0  0  0  0  0  0  0  0  0
    7.0951   -1.4617    0.0000 C   0  0  0  0  0  0  0  0  0  0  0  0
    7.7429   -1.0420    0.0000 C   0  0  0  0  0  0  0  0  0  0  0  0
    7.7935   -0.1781    0.0000 O   0  0  0  0  0  0  0  0  0  0  0  0
    8.5048   -1.4619    0.0000 C   0  0  0  0  0  0  0  0  0  0  0  0
    9.2256   -1.0374    0.0000 C   0  0  0  0  0  0  0  0  0  0  0  0
    9.9218   -1.4620    0.0000 C   0  0  0  0  0  0  0  0  0  0  0  0
   10.6085   -1.0384    0.0000 C   0  0  0  0  0  0  0  0  0  0  0  0
   11.2952   -1.4502    0.0000 C   0  0  0  0  0  0  0  0  0  0  0  0
   12.0374   -1.0446    0.0000 C   0  0  0  0  0  0  0  0  0  0  0  0
   13.4679   -1.0410    0.0000 C   0  0  0  0  0  0  0  0  0  0  0  0
   12.7422   -1.4734    0.0000 C   0  0  0  0  0  0  0  0  0  0  0  0
   14.1422   -1.4718    0.0000 C   0  0  0  0  0  0  0  0  0  0  0  0
   13.4199   -2.6974    0.0000 C   0  0  0  0  0  0  0  0  0  0  0  0
   14.1500   -2.2911    0.0000 C   0  0  0  0  0  0  0  0  0  0  0  0
   12.7443   -2.2941    0.0000 C   0  0  0  0  0  0  0  0  0  0  0  0
   12.0221   -2.6987    0.0000 C   0  0  0  0  0  0  0  0  0  0  0  0
   11.3152   -2.2835    0.0000 C   0  0  0  0  0  0  0  0  0  0  0  0
    5.6815   -2.2947    0.0000 C   0  0  0  0  0  0  0  0  0  0  0  0
    4.9960   -2.7000    0.0000 C   0  0  0  0  0  0  0  0  0  0  0  0
    4.2728   -2.2879    0.0000 C   0  0  0  0  0  0  0  0  0  0  0  0
    3.5654   -2.7117    0.0000 C   0  0  0  0  0  0  0  0  0  0  0  0
    4.9802   -1.0488    0.0000 C   0  0  0  0  0  0  0  0  0  0  0  0
   15.5322   -2.2990    0.0000 C   0  0  0  0  0  0  0  0  0  0  0  0
   15.5549   -1.4530    0.0000 C   0  0  0  0  0  0  0  0  0  0  0  0
   16.3831   -1.0109    0.0000 N   0  0  0  0  0  0  0  0  0  0  0  0
   14.8537   -2.6607    0.0000 O   0  0  0  0  0  0  0  0  0  0  0  0
    1.4443   -2.2847    0.0000 C   0  0  0  0  0  0  0  0  0  0  0  0
    1.4440   -1.4788    0.0000 C   0  0  0  0  0  0  0  0  0  0  0  0
    0.7228   -1.0056    0.0000 N   0  0  0  0  0  0  0  0  0  0  0  0
    9.1762   -0.1781    0.0000 O   0  0  0  0  0  0  0  0  0  0  0  0
   16.8074   -0.8768    0.0000 C   0  0  0  0  0  0  0  0  0  0  0  0
  1  2  1  0  0  0  0
  2 28  2  0  0  0  0
  3  4  2  0  0  0  0
  3  2  1  0  0  0  0
  5  4  1  0  0  0  0
  5 29  1  0  0  0  0
  6  7  1  0  0  0  0
  6 25  1  0  0  0  0
  7  8  2  0  0  0  0
  8  9  1  0  0  0  0
  9 10  2  0  0  0  0
 11  9  1  0  0  0  0
 12 11  1  0  0  0  0
 12 13  1  0  0  0  0
 13 14  2  0  0  0  0
 14 15  1  0  0  0  0
 15 16  2  0  0  0  0
 15 24  1  0  0  0  0
 16 18  1  0  0  0  0
 17 18  1  0  0  0  0
 17 19  2  0  0  0  0
 18 22  2  0  0  0  0
 20 21  2  0  0  0  0
 21 19  1  0  0  0  0
 21 33  1  0  0  0  0
 22 23  1  0  0  0  0
 22 20  1  0  0  0  0
 24 23  2  0  0  0  0
 26 25  2  0  0  0  0
 26 27  1  0  0  0  0
 27  5  2  0  0  0  0
 28 27  1  0  0  0  0
 29  6  2  0  0  0  0
 30 31  1  0  0  0  0
 30 33  1  0  0  0  0
 31 32  1  0  0  0  0
 32 38  1  0  0  0  0
 34 35  1  0  0  0  0
 34  1  1  0  0  0  0
 36 35  1  0  0  0  0
 37 12  2  0  0  0  0
M  END
> <ID>
SCHEMBL21155951

> <InChIKey>
BCGDNQLJHZYKJM-ZVSIBQGLSA-N

> <MW>
508.618

> <Series_Name>
Series_8

$$$$
SCHEMBL21155973
  Mrv1719007191920002D 0   0.00000     0.00000     0

 37 38  0  0  0  0              1 V2000 
    9.7647   -0.4157    0.0000 O   0  0  0  0  0  0  0  0  0  0  0  0
   15.5015   -0.7575    0.0000 N   0  0  0  0  0  0  0  0  0  0  0  0
    3.3072   -1.6999    0.0000 C   0  0  0  0  0  0  0  0  0  0  0  0
    9.0533   -2.5128    0.0000 C   0  0  0  0  0  0  0  0  0  0  0  0
    0.2956   -2.7067    0.0000 Cl  0  0  0  0  0  0  0  0  0  0  0  0
   15.9265   -2.7345    0.0000 N   0  0  0  0  0  0  0  0  0  0  0  0
    9.6939   -1.2933    0.0000 C   0  0  0  0  0  0  0  0  0  0  0  0
   15.4461   -1.3857    0.0000 C   0  0  0  0  0  0  0  0  0  0  0  0
   14.8364   -1.7183    0.0000 C   0  0  0  0  0  0  0  0  0  0  0  0
    6.1711   -1.6937    0.0000 C   0  0  0  0  0  0  0  0  0  0  0  0
    5.4689   -1.2748    0.0000 C   0  0  0  0  0  0  0  0  0  0  0  0
    4.7484   -1.6937    0.0000 C   0  0  0  0  0  0  0  0  0  0  0  0
    7.6676   -1.6813    0.0000 C   0  0  0  0  0  0  0  0  0  0  0  0
    6.8916   -1.2748    0.0000 C   0  0  0  0  0  0  0  0  0  0  0  0
    9.0533   -1.6937    0.0000 C   0  0  0  0  0  0  0  0  0  0  0  0
   11.8987   -1.7121    0.0000 C   0  0  0  0  0  0  0  0  0  0  0  0
   11.1966   -1.2933    0.0000 C   0  0  0  0  0  0  0  0  0  0  0  0
   10.4944   -1.6999    0.0000 C   0  0  0  0  0  0  0  0  0  0  0  0
   13.3214   -1.7306    0.0000 C   0  0  0  0  0  0  0  0  0  0  0  0
   12.6192   -1.3118    0.0000 C   0  0  0  0  0  0  0  0  0  0  0  0
    4.7299   -2.5559    0.0000 C   0  0  0  0  0  0  0  0  0  0  0  0
    6.1711   -2.5312    0.0000 C   0  0  0  0  0  0  0  0  0  0  0  0
    5.4319   -2.9747    0.0000 C   0  0  0  0  0  0  0  0  0  0  0  0
   11.8987   -2.5497    0.0000 C   0  0  0  0  0  0  0  0  0  0  0  0
   12.6192   -3.0117    0.0000 C   0  0  0  0  0  0  0  0  0  0  0  0
   13.3214   -2.5928    0.0000 C   0  0  0  0  0  0  0  0  0  0  0  0
    3.3257   -2.5497    0.0000 C   0  0  0  0  0  0  0  0  0  0  0  0
    2.6236   -2.9562    0.0000 C   0  0  0  0  0  0  0  0  0  0  0  0
   15.4646   -2.9932    0.0000 C   0  0  0  0  0  0  0  0  0  0  0  0
   14.7624   -2.6051    0.0000 C   0  0  0  0  0  0  0  0  0  0  0  0
    8.3420   -1.2686    0.0000 C   0  0  0  0  0  0  0  0  0  0  0  0
    8.3143   -0.4434    0.0000 O   0  0  0  0  0  0  0  0  0  0  0  0
    1.4121   -2.3280    0.0000 N   0  0  0  0  0  0  0  0  0  0  0  0
   14.0604   -3.0670    0.0000 O   0  0  0  0  0  0  0  0  0  0  0  0
    4.0463   -3.0300    0.0000 O   0  0  0  0  0  0  0  0  0  0  0  0
    4.1018   -1.2748    0.0000 O   0  0  0  0  0  0  0  0  0  0  0  0
   14.0974   -1.3118    0.0000 O   0  0  0  0  0  0  0  0  0  0  0  0
  1  7  2  0  0  0  0
  2  8  1  0  0  0  0
  8  9  1  0  0  0  0
 10 11  2  0  0  0  0
 11 12  1  0  0  0  0
 13 14  2  0  0  0  0
 10 14  1  0  0  0  0
  7 15  1  0  0  0  0
  4 15  1  0  0  0  0
 16 17  1  0  0  0  0
 17 18  2  0  0  0  0
  7 18  1  0  0  0  0
 19 20  1  0  0  0  0
 16 20  2  0  0  0  0
 12 21  2  0  0  0  0
 10 22  1  0  0  0  0
 22 23  2  0  0  0  0
 21 23  1  0  0  0  0
 16 24  1  0  0  0  0
 24 25  2  0  0  0  0
 25 26  1  0  0  0  0
 19 26  2  0  0  0  0
 27 28  1  0  0  0  0
  6 29  1  0  0  0  0
 29 30  1  0  0  0  0
 13 31  1  0  0  0  0
 15 31  1  0  0  0  0
 31 32  2  0  0  0  0
  5 33  1  0  0  0  0
 28 33  1  0  0  0  0
 26 34  1  0  0  0  0
 30 34  1  0  0  0  0
 21 35  1  0  0  0  0
 27 35  1  0  0  0  0
  3 36  1  0  0  0  0
 12 36  1  0  0  0  0
  9 37  1  0  0  0  0
 19 37  1  0  0  0  0
M  END
> <ID>
SCHEMBL21155973

> <InChIKey>
RMDAMMIZHXNZLQ-FCXRPNKRSA-N

> <MW>
532.03

> <Series_Name>
Series_8

$$$$
SCHEMBL21156271
  Mrv1719007191920592D 0   0.00000     0.00000     0

 25 28  0  0  0  0              1 V2000 
    7.9917   -4.3206    0.0000 C   0  0  0  0  0  0  0  0  0  0  0  0
    7.9984   -3.4894    0.0000 C   0  0  0  0  0  0  0  0  0  0  0  0
    7.3038   -3.0958    0.0000 C   0  0  0  0  0  0  0  0  0  0  0  0
    6.5747   -3.7608    0.0000 N   0  0  0  0  0  0  0  0  0  0  0  0
    8.7200   -3.0908    0.0000 C   0  0  0  0  0  0  0  0  0  0  0  0
    9.4261   -3.5009    0.0000 C   0  0  0  0  0  0  0  0  0  0  0  0
    9.4328   -4.3259    0.0000 C   0  0  0  0  0  0  0  0  0  0  0  0
   10.1121   -4.7524    0.0000 F   0  0  0  0  0  0  0  0  0  0  0  0
    8.7209   -4.7417    0.0000 C   0  0  0  0  0  0  0  0  0  0  0  0
    5.8779   -2.2690    0.0000 N   0  0  0  0  0  0  0  0  0  0  0  0
    5.8870   -3.0874    0.0000 C   0  0  0  0  0  0  0  0  0  0  0  0
    5.1633   -3.5196    0.0000 S   0  0  0  0  0  0  0  0  0  0  0  0
    4.4735   -3.0850    0.0000 C   0  0  0  0  0  0  0  0  0  0  0  0
    4.4743   -2.2546    0.0000 C   0  0  0  0  0  0  0  0  0  0  0  0
    3.7770   -1.8387    0.0000 C   0  0  0  0  0  0  0  0  0  0  0  0
    3.0657   -2.2561    0.0000 C   0  0  0  0  0  0  0  0  0  0  0  0
    2.3500   -1.8359    0.0000 C   0  0  0  0  0  0  0  0  0  0  0  0
    1.5722   -2.3494    0.0000 N   0  0  0  0  0  0  0  0  0  0  0  0
    2.3493   -1.0038    0.0000 C   0  0  0  0  0  0  0  0  0  0  0  0
    1.5722   -0.5271    0.0000 N   0  0  0  0  0  0  0  0  0  0  0  0
    3.0701   -0.5928    0.0000 C   0  0  0  0  0  0  0  0  0  0  0  0
    3.7819   -1.0051    0.0000 C   0  0  0  0  0  0  0  0  0  0  0  0
    5.1633   -1.8580    0.0000 N   0  0  0  0  0  0  0  0  0  0  0  0
    0.2858   -1.4293    0.0000 O   0  0  0  0  0  0  0  0  0  0  0  0
    1.1300   -1.3519    0.0000 C   0  0  0  0  0  0  0  0  0  0  0  0
  1  2  2  0  0  0  0
  1  9  1  0  0  0  0
  2  3  1  0  0  0  0
  2  5  1  0  0  0  0
  3  4  1  0  0  0  0
  5  6  2  0  0  0  0
  7  6  1  0  0  0  0
  7  8  1  0  0  0  0
  9  7  2  0  0  0  0
 10 11  2  0  0  0  0
 11  4  1  0  0  0  0
 11 12  1  0  0  0  0
 13 14  1  0  0  0  0
 13 12  1  0  0  0  0
 14 23  2  0  0  0  0
 15 14  1  0  0  0  0
 16 15  2  0  0  0  0
 17 18  1  0  0  0  0
 17 16  1  0  0  0  0
 19 17  2  0  0  0  0
 19 21  1  0  0  0  0
 20 19  1  0  0  0  0
 21 22  2  0  0  0  0
 22 15  1  0  0  0  0
 23 10  1  0  0  0  0
 24 25  2  0  0  0  0
 25 20  1  0  0  0  0
 25 18  1  0  0  0  0
M  END
> <ID>
SCHEMBL21156271

> <InChIKey>
QVWSRWOJOXMAJQ-UHFFFAOYSA-N

> <MW>
355.39

> <Series_Name>
Series_2

$$$$
SCHEMBL21156272
  Mrv1719007191920592D 0   0.00000     0.00000     0

 25 28  0  0  0  0              1 V2000 
    7.9876   -3.5005    0.0000 C   0  0  0  0  0  0  0  0  0  0  0  0
    7.9939   -4.3415    0.0000 C   0  0  0  0  0  0  0  0  0  0  0  0
    7.2878   -3.0946    0.0000 C   0  0  0  0  0  0  0  0  0  0  0  0
    6.5541   -3.7593    0.0000 N   0  0  0  0  0  0  0  0  0  0  0  0
    8.6925   -3.0929    0.0000 C   0  0  0  0  0  0  0  0  0  0  0  0
    9.3969   -3.5046    0.0000 C   0  0  0  0  0  0  0  0  0  0  0  0
    9.4040   -4.3363    0.0000 C   0  0  0  0  0  0  0  0  0  0  0  0
   10.2184   -4.7638    0.0000 Cl  0  0  0  0  0  0  0  0  0  0  0  0
    8.6882   -4.7574    0.0000 C   0  0  0  0  0  0  0  0  0  0  0  0
    4.4613   -3.0860    0.0000 C   0  0  0  0  0  0  0  0  0  0  0  0
    4.4551   -2.2619    0.0000 C   0  0  0  0  0  0  0  0  0  0  0  0
    3.7440   -1.8515    0.0000 C   0  0  0  0  0  0  0  0  0  0  0  0
    3.0563   -2.2654    0.0000 C   0  0  0  0  0  0  0  0  0  0  0  0
    2.3472   -1.8407    0.0000 C   0  0  0  0  0  0  0  0  0  0  0  0
    1.5537   -2.3573    0.0000 N   0  0  0  0  0  0  0  0  0  0  0  0
    2.3520   -1.0138    0.0000 C   0  0  0  0  0  0  0  0  0  0  0  0
    1.5537   -0.5268    0.0000 N   0  0  0  0  0  0  0  0  0  0  0  0
    3.0729   -0.6127    0.0000 C   0  0  0  0  0  0  0  0  0  0  0  0
    3.7566   -1.0075    0.0000 C   0  0  0  0  0  0  0  0  0  0  0  0
    5.1433   -1.8573    0.0000 N   0  0  0  0  0  0  0  0  0  0  0  0
    5.1611   -3.5181    0.0000 S   0  0  0  0  0  0  0  0  0  0  0  0
    5.8397   -2.2681    0.0000 N   0  0  0  0  0  0  0  0  0  0  0  0
    5.8761   -3.0991    0.0000 C   0  0  0  0  0  0  0  0  0  0  0  0
    0.2679   -1.4287    0.0000 O   0  0  0  0  0  0  0  0  0  0  0  0
    1.1499   -1.5026    0.0000 C   0  0  0  0  0  0  0  0  0  0  0  0
  1  2  2  0  0  0  0
  1  5  1  0  0  0  0
  2  9  1  0  0  0  0
  3  4  1  0  0  0  0
  3  1  1  0  0  0  0
  5  6  2  0  0  0  0
  6  7  1  0  0  0  0
  7  8  1  0  0  0  0
  9  7  2  0  0  0  0
 10 11  1  0  0  0  0
 10 21  1  0  0  0  0
 11 20  2  0  0  0  0
 12 11  1  0  0  0  0
 13 12  2  0  0  0  0
 13 14  1  0  0  0  0
 14 16  2  0  0  0  0
 15 14  1  0  0  0  0
 16 17  1  0  0  0  0
 16 18  1  0  0  0  0
 18 19  2  0  0  0  0
 19 12  1  0  0  0  0
 20 22  1  0  0  0  0
 22 23  2  0  0  0  0
 23  4  1  0  0  0  0
 23 21  1  0  0  0  0
 24 25  2  0  0  0  0
 25 17  1  0  0  0  0
 25 15  1  0  0  0  0
M  END
> <ID>
SCHEMBL21156272

> <InChIKey>
SDWZEMHPBPRVPC-UHFFFAOYSA-N

> <MW>
371.84

> <Series_Name>
Series_2

$$$$
SCHEMBL21156273
  Mrv1719007191920592D 0   0.00000     0.00000     0

 26 29  0  0  0  0              1 V2000 
    8.1494   -3.4777    0.0000 C   0  0  0  0  0  0  0  0  0  0  0  0
    8.1545   -4.3093    0.0000 C   0  0  0  0  0  0  0  0  0  0  0  0
    7.4347   -3.0636    0.0000 C   0  0  0  0  0  0  0  0  0  0  0  0
    6.6774   -3.7277    0.0000 N   0  0  0  0  0  0  0  0  0  0  0  0
    8.8745   -3.0633    0.0000 C   0  0  0  0  0  0  0  0  0  0  0  0
    9.5857   -3.4756    0.0000 C   0  0  0  0  0  0  0  0  0  0  0  0
   10.0821   -3.2534    0.0000 C   0  0  0  0  0  0  0  0  0  0  0  0
   10.5784   -3.0312    0.0000 N   0  0  0  0  0  0  0  0  0  0  0  0
    9.5795   -4.3088    0.0000 C   0  0  0  0  0  0  0  0  0  0  0  0
    8.8798   -4.6945    0.0000 C   0  0  0  0  0  0  0  0  0  0  0  0
    5.9716   -2.2439    0.0000 N   0  0  0  0  0  0  0  0  0  0  0  0
    5.9907   -3.0678    0.0000 C   0  0  0  0  0  0  0  0  0  0  0  0
    5.2478   -3.4925    0.0000 S   0  0  0  0  0  0  0  0  0  0  0  0
    4.5563   -3.0592    0.0000 C   0  0  0  0  0  0  0  0  0  0  0  0
    4.5545   -2.2342    0.0000 C   0  0  0  0  0  0  0  0  0  0  0  0
    3.1153   -2.2406    0.0000 C   0  0  0  0  0  0  0  0  0  0  0  0
    3.8276   -1.8328    0.0000 C   0  0  0  0  0  0  0  0  0  0  0  0
    2.3986   -1.8307    0.0000 C   0  0  0  0  0  0  0  0  0  0  0  0
    1.5743   -2.3344    0.0000 N   0  0  0  0  0  0  0  0  0  0  0  0
    2.4023   -1.0096    0.0000 C   0  0  0  0  0  0  0  0  0  0  0  0
    1.5743   -0.5248    0.0000 N   0  0  0  0  0  0  0  0  0  0  0  0
    3.1070   -0.6056    0.0000 C   0  0  0  0  0  0  0  0  0  0  0  0
    3.8239   -0.9964    0.0000 C   0  0  0  0  0  0  0  0  0  0  0  0
    5.2478   -1.8458    0.0000 N   0  0  0  0  0  0  0  0  0  0  0  0
    0.2533   -1.4296    0.0000 O   0  0  0  0  0  0  0  0  0  0  0  0
    1.1875   -1.4721    0.0000 C   0  0  0  0  0  0  0  0  0  0  0  0
  1  2  2  0  0  0  0
  1  5  1  0  0  0  0
  2 10  1  0  0  0  0
  3  4  1  0  0  0  0
  3  1  1  0  0  0  0
  5  6  2  0  0  0  0
  6  7  1  0  0  0  0
  7  8  3  0  0  0  0
  9  6  1  0  0  0  0
 10  9  2  0  0  0  0
 11 12  2  0  0  0  0
 12  4  1  0  0  0  0
 12 13  1  0  0  0  0
 14 15  1  0  0  0  0
 14 13  1  0  0  0  0
 15 24  2  0  0  0  0
 16 17  2  0  0  0  0
 16 18  1  0  0  0  0
 17 15  1  0  0  0  0
 18 20  2  0  0  0  0
 19 18  1  0  0  0  0
 20 21  1  0  0  0  0
 20 22  1  0  0  0  0
 22 23  2  0  0  0  0
 23 17  1  0  0  0  0
 24 11  1  0  0  0  0
 25 26  2  0  0  0  0
 26 21  1  0  0  0  0
 26 19  1  0  0  0  0
M  END
> <ID>
SCHEMBL21156273

> <InChIKey>
OFXKBOCPVLEEQO-UHFFFAOYSA-N

> <MW>
362.41

> <Series_Name>
Series_2

$$$$
SCHEMBL21156274
  Mrv1719007191920592D 0   0.00000     0.00000     0

 27 30  0  0  0  0              1 V2000 
    8.0544   -3.5088    0.0000 C   0  0  0  0  0  0  0  0  0  0  0  0
    8.0589   -4.3495    0.0000 C   0  0  0  0  0  0  0  0  0  0  0  0
    6.5991   -3.7645    0.0000 N   0  0  0  0  0  0  0  0  0  0  0  0
    7.3399   -3.0967    0.0000 C   0  0  0  0  0  0  0  0  0  0  0  0
    8.7630   -3.1029    0.0000 C   0  0  0  0  0  0  0  0  0  0  0  0
    9.4705   -3.5065    0.0000 C   0  0  0  0  0  0  0  0  0  0  0  0
    9.9695   -3.2860    0.0000 C   0  0  0  0  0  0  0  0  0  0  0  0
   10.4685   -3.0655    0.0000 N   0  0  0  0  0  0  0  0  0  0  0  0
    9.4699   -4.3432    0.0000 C   0  0  0  0  0  0  0  0  0  0  0  0
   10.1759   -4.7750    0.0000 F   0  0  0  0  0  0  0  0  0  0  0  0
    8.7770   -4.7465    0.0000 C   0  0  0  0  0  0  0  0  0  0  0  0
    5.9016   -2.2713    0.0000 N   0  0  0  0  0  0  0  0  0  0  0  0
    5.9210   -3.1030    0.0000 C   0  0  0  0  0  0  0  0  0  0  0  0
    5.1863   -3.5232    0.0000 S   0  0  0  0  0  0  0  0  0  0  0  0
    4.5034   -3.0952    0.0000 C   0  0  0  0  0  0  0  0  0  0  0  0
    4.4985   -2.2638    0.0000 C   0  0  0  0  0  0  0  0  0  0  0  0
    3.0788   -2.2689    0.0000 C   0  0  0  0  0  0  0  0  0  0  0  0
    3.7832   -1.8464    0.0000 C   0  0  0  0  0  0  0  0  0  0  0  0
    2.3499   -1.8495    0.0000 C   0  0  0  0  0  0  0  0  0  0  0  0
    1.5559   -2.3606    0.0000 N   0  0  0  0  0  0  0  0  0  0  0  0
    2.3741   -1.0157    0.0000 C   0  0  0  0  0  0  0  0  0  0  0  0
    1.5559   -0.5276    0.0000 N   0  0  0  0  0  0  0  0  0  0  0  0
    3.0706   -0.6164    0.0000 C   0  0  0  0  0  0  0  0  0  0  0  0
    3.7791   -1.0027    0.0000 C   0  0  0  0  0  0  0  0  0  0  0  0
    5.1863   -1.8600    0.0000 N   0  0  0  0  0  0  0  0  0  0  0  0
    0.2861   -1.4307    0.0000 O   0  0  0  0  0  0  0  0  0  0  0  0
    1.1543   -1.5131    0.0000 C   0  0  0  0  0  0  0  0  0  0  0  0
  1  2  2  0  0  0  0
  1  5  1  0  0  0  0
  2 11  1  0  0  0  0
  3  4  1  0  0  0  0
  4  1  1  0  0  0  0
  5  6  2  0  0  0  0
  6  7  1  0  0  0  0
  7  8  3  0  0  0  0
  9 10  1  0  0  0  0
  9  6  1  0  0  0  0
 11  9  2  0  0  0  0
 12 13  2  0  0  0  0
 13  3  1  0  0  0  0
 13 14  1  0  0  0  0
 15 16  1  0  0  0  0
 15 14  1  0  0  0  0
 16 25  2  0  0  0  0
 17 18  2  0  0  0  0
 17 19  1  0  0  0  0
 18 16  1  0  0  0  0
 19 21  2  0  0  0  0
 20 19  1  0  0  0  0
 21 22  1  0  0  0  0
 21 23  1  0  0  0  0
 23 24  2  0  0  0  0
 24 18  1  0  0  0  0
 25 12  1  0  0  0  0
 26 27  2  0  0  0  0
 27 22  1  0  0  0  0
 27 20  1  0  0  0  0
M  END
> <ID>
SCHEMBL21156274

> <InChIKey>
AGZQXOUTROWYJE-UHFFFAOYSA-N

> <MW>
380.4

> <Series_Name>
Series_2

$$$$
SCHEMBL21156275
  Mrv1719007191920592D 0   0.00000     0.00000     0

 25 28  0  0  0  0              1 V2000 
    7.4375   -3.0500    0.0000 C   0  0  0  0  0  0  0  0  0  0  0  0
    6.6933   -3.6909    0.0000 N   0  0  0  0  0  0  0  0  0  0  0  0
    8.1571   -3.4412    0.0000 C   0  0  0  0  0  0  0  0  0  0  0  0
    8.8759   -3.0381    0.0000 C   0  0  0  0  0  0  0  0  0  0  0  0
    8.8549   -2.2257    0.0000 F   0  0  0  0  0  0  0  0  0  0  0  0
    9.5764   -3.4406    0.0000 C   0  0  0  0  0  0  0  0  0  0  0  0
    8.8469   -4.6648    0.0000 C   0  0  0  0  0  0  0  0  0  0  0  0
    9.5819   -4.2693    0.0000 C   0  0  0  0  0  0  0  0  0  0  0  0
    8.1684   -4.2627    0.0000 C   0  0  0  0  0  0  0  0  0  0  0  0
    4.5542   -3.0374    0.0000 C   0  0  0  0  0  0  0  0  0  0  0  0
    4.5562   -2.2117    0.0000 C   0  0  0  0  0  0  0  0  0  0  0  0
    2.3954   -1.8072    0.0000 C   0  0  0  0  0  0  0  0  0  0  0  0
    3.1160   -2.2115    0.0000 C   0  0  0  0  0  0  0  0  0  0  0  0
    1.5852   -2.3058    0.0000 N   0  0  0  0  0  0  0  0  0  0  0  0
    2.3916   -0.9878    0.0000 C   0  0  0  0  0  0  0  0  0  0  0  0
    1.5852   -0.5044    0.0000 N   0  0  0  0  0  0  0  0  0  0  0  0
    3.1201   -0.5793    0.0000 C   0  0  0  0  0  0  0  0  0  0  0  0
    3.8387   -0.9818    0.0000 C   0  0  0  0  0  0  0  0  0  0  0  0
    3.8376   -1.8068    0.0000 C   0  0  0  0  0  0  0  0  0  0  0  0
    5.2521   -1.8094    0.0000 N   0  0  0  0  0  0  0  0  0  0  0  0
    5.2521   -3.4587    0.0000 S   0  0  0  0  0  0  0  0  0  0  0  0
    5.9727   -2.2257    0.0000 N   0  0  0  0  0  0  0  0  0  0  0  0
    5.9850   -3.0433    0.0000 C   0  0  0  0  0  0  0  0  0  0  0  0
    0.2722   -1.4091    0.0000 O   0  0  0  0  0  0  0  0  0  0  0  0
    1.1575   -1.3708    0.0000 C   0  0  0  0  0  0  0  0  0  0  0  0
  1  2  1  0  0  0  0
  1  3  1  0  0  0  0
  3  9  2  0  0  0  0
  4  3  1  0  0  0  0
  4  6  2  0  0  0  0
  5  4  1  0  0  0  0
  7  8  2  0  0  0  0
  8  6  1  0  0  0  0
  9  7  1  0  0  0  0
 10 11  1  0  0  0  0
 10 21  1  0  0  0  0
 11 20  2  0  0  0  0
 12 13  1  0  0  0  0
 12 14  1  0  0  0  0
 13 19  2  0  0  0  0
 15 12  2  0  0  0  0
 15 17  1  0  0  0  0
 16 15  1  0  0  0  0
 17 18  2  0  0  0  0
 19 18  1  0  0  0  0
 19 11  1  0  0  0  0
 20 22  1  0  0  0  0
 22 23  2  0  0  0  0
 23  2  1  0  0  0  0
 23 21  1  0  0  0  0
 24 25  2  0  0  0  0
 25 16  1  0  0  0  0
 25 14  1  0  0  0  0
M  END
> <ID>
SCHEMBL21156275

> <InChIKey>
IFOKPJZBSFIOIB-UHFFFAOYSA-N

> <MW>
355.39

> <Series_Name>
Series_2

$$$$
SCHEMBL21156278
  Mrv1719007191920592D 0   0.00000     0.00000     0

 25 28  0  0  0  0              1 V2000 
    8.0624   -4.2981    0.0000 C   0  0  0  0  0  0  0  0  0  0  0  0
    8.0692   -3.4731    0.0000 C   0  0  0  0  0  0  0  0  0  0  0  0
    6.6400   -3.7229    0.0000 N   0  0  0  0  0  0  0  0  0  0  0  0
    7.3568   -3.0629    0.0000 C   0  0  0  0  0  0  0  0  0  0  0  0
    8.7778   -3.0690    0.0000 C   0  0  0  0  0  0  0  0  0  0  0  0
    9.4887   -3.4747    0.0000 C   0  0  0  0  0  0  0  0  0  0  0  0
   10.3257   -3.0823    0.0000 Cl  0  0  0  0  0  0  0  0  0  0  0  0
    8.7805   -4.7202    0.0000 C   0  0  0  0  0  0  0  0  0  0  0  0
    9.4775   -4.3047    0.0000 C   0  0  0  0  0  0  0  0  0  0  0  0
    4.5096   -3.0596    0.0000 C   0  0  0  0  0  0  0  0  0  0  0  0
    4.5068   -2.2330    0.0000 C   0  0  0  0  0  0  0  0  0  0  0  0
    3.0940   -2.2368    0.0000 C   0  0  0  0  0  0  0  0  0  0  0  0
    3.8200   -1.8260    0.0000 C   0  0  0  0  0  0  0  0  0  0  0  0
    2.3647   -1.8285    0.0000 C   0  0  0  0  0  0  0  0  0  0  0  0
    1.5794   -2.3288    0.0000 N   0  0  0  0  0  0  0  0  0  0  0  0
    2.3792   -1.0036    0.0000 C   0  0  0  0  0  0  0  0  0  0  0  0
    1.5794   -0.5157    0.0000 N   0  0  0  0  0  0  0  0  0  0  0  0
    3.0882   -0.6102    0.0000 C   0  0  0  0  0  0  0  0  0  0  0  0
    3.8141   -1.0036    0.0000 C   0  0  0  0  0  0  0  0  0  0  0  0
    5.2056   -1.8373    0.0000 N   0  0  0  0  0  0  0  0  0  0  0  0
    5.2056   -3.4812    0.0000 S   0  0  0  0  0  0  0  0  0  0  0  0
    5.9148   -2.2563    0.0000 N   0  0  0  0  0  0  0  0  0  0  0  0
    5.9315   -3.0709    0.0000 C   0  0  0  0  0  0  0  0  0  0  0  0
    0.2740   -1.4182    0.0000 O   0  0  0  0  0  0  0  0  0  0  0  0
    1.1630   -1.4868    0.0000 C   0  0  0  0  0  0  0  0  0  0  0  0
  1  2  2  0  0  0  0
  1  8  1  0  0  0  0
  2  4  1  0  0  0  0
  2  5  1  0  0  0  0
  3  4  1  0  0  0  0
  5  6  2  0  0  0  0
  6  7  1  0  0  0  0
  8  9  2  0  0  0  0
  9  6  1  0  0  0  0
 10 11  1  0  0  0  0
 10 21  1  0  0  0  0
 11 20  2  0  0  0  0
 12 13  2  0  0  0  0
 12 14  1  0  0  0  0
 13 11  1  0  0  0  0
 14 16  2  0  0  0  0
 15 14  1  0  0  0  0
 16 17  1  0  0  0  0
 16 18  1  0  0  0  0
 18 19  2  0  0  0  0
 19 13  1  0  0  0  0
 20 22  1  0  0  0  0
 22 23  2  0  0  0  0
 23  3  1  0  0  0  0
 23 21  1  0  0  0  0
 24 25  2  0  0  0  0
 25 17  1  0  0  0  0
 25 15  1  0  0  0  0
M  END
> <ID>
SCHEMBL21156278

> <InChIKey>
ZNSKZXIITQJCMG-UHFFFAOYSA-N

> <MW>
371.84

> <Series_Name>
Series_2

$$$$
SCHEMBL21156279
  Mrv1719007191920592D 0   0.00000     0.00000     0

 28 31  0  0  0  0              1 V2000 
    8.1985   -4.3110    0.0000 C   0  0  0  0  0  0  0  0  0  0  0  0
    8.2004   -3.4886    0.0000 C   0  0  0  0  0  0  0  0  0  0  0  0
    7.4872   -3.0847    0.0000 C   0  0  0  0  0  0  0  0  0  0  0  0
    6.7390   -3.7499    0.0000 N   0  0  0  0  0  0  0  0  0  0  0  0
    8.9307   -3.0887    0.0000 C   0  0  0  0  0  0  0  0  0  0  0  0
    9.6443   -3.4763    0.0000 C   0  0  0  0  0  0  0  0  0  0  0  0
    9.6604   -4.3338    0.0000 C   0  0  0  0  0  0  0  0  0  0  0  0
   10.1537   -4.5670    0.0000 C   0  0  0  0  0  0  0  0  0  0  0  0
   10.6975   -4.5222    0.0000 F   0  0  0  0  0  0  0  0  0  0  0  0
   10.3869   -4.0737    0.0000 F   0  0  0  0  0  0  0  0  0  0  0  0
   10.1985   -5.1108    0.0000 F   0  0  0  0  0  0  0  0  0  0  0  0
    8.9220   -4.7311    0.0000 C   0  0  0  0  0  0  0  0  0  0  0  0
    4.5904   -3.0736    0.0000 C   0  0  0  0  0  0  0  0  0  0  0  0
    4.5914   -2.2494    0.0000 C   0  0  0  0  0  0  0  0  0  0  0  0
    3.8596   -1.8335    0.0000 C   0  0  0  0  0  0  0  0  0  0  0  0
    2.4176   -1.8332    0.0000 C   0  0  0  0  0  0  0  0  0  0  0  0
    3.1535   -2.2372    0.0000 C   0  0  0  0  0  0  0  0  0  0  0  0
    1.5942   -2.3459    0.0000 N   0  0  0  0  0  0  0  0  0  0  0  0
    2.4139   -1.0082    0.0000 C   0  0  0  0  0  0  0  0  0  0  0  0
    1.5942   -0.5254    0.0000 N   0  0  0  0  0  0  0  0  0  0  0  0
    5.2898   -1.8478    0.0000 N   0  0  0  0  0  0  0  0  0  0  0  0
    5.2898   -3.4963    0.0000 S   0  0  0  0  0  0  0  0  0  0  0  0
    3.8564   -1.0091    0.0000 C   0  0  0  0  0  0  0  0  0  0  0  0
    3.1418   -0.6119    0.0000 C   0  0  0  0  0  0  0  0  0  0  0  0
    6.0145   -2.2645    0.0000 N   0  0  0  0  0  0  0  0  0  0  0  0
    6.0210   -3.0763    0.0000 C   0  0  0  0  0  0  0  0  0  0  0  0
    0.2717   -1.4312    0.0000 O   0  0  0  0  0  0  0  0  0  0  0  0
    1.1847   -1.4881    0.0000 C   0  0  0  0  0  0  0  0  0  0  0  0
  1  2  2  0  0  0  0
  1 12  1  0  0  0  0
  2  3  1  0  0  0  0
  2  5  1  0  0  0  0
  3  4  1  0  0  0  0
  5  6  2  0  0  0  0
  7  6  1  0  0  0  0
  7  8  1  0  0  0  0
  8  9  1  0  0  0  0
  8 10  1  0  0  0  0
  8 11  1  0  0  0  0
 12  7  2  0  0  0  0
 13 14  1  0  0  0  0
 13 22  1  0  0  0  0
 14 21  2  0  0  0  0
 15 14  1  0  0  0  0
 15 23  1  0  0  0  0
 16 17  1  0  0  0  0
 16 18  1  0  0  0  0
 17 15  2  0  0  0  0
 19 16  2  0  0  0  0
 19 24  1  0  0  0  0
 20 19  1  0  0  0  0
 21 25  1  0  0  0  0
 24 23  2  0  0  0  0
 25 26  2  0  0  0  0
 26  4  1  0  0  0  0
 26 22  1  0  0  0  0
 27 28  2  0  0  0  0
 28 20  1  0  0  0  0
 28 18  1  0  0  0  0
M  END
> <ID>
SCHEMBL21156279

> <InChIKey>
VTSKDSWGAIIDJV-UHFFFAOYSA-N

> <MW>
405.4

> <Series_Name>
Series_2

$$$$
SCHEMBL21156280
  Mrv1719007191920592D 0   0.00000     0.00000     0

 27 30  0  0  0  0              1 V2000 
    8.1465   -4.3099    0.0000 C   0  0  0  0  0  0  0  0  0  0  0  0
    8.1482   -3.4735    0.0000 C   0  0  0  0  0  0  0  0  0  0  0  0
    6.6825   -3.7317    0.0000 N   0  0  0  0  0  0  0  0  0  0  0  0
    7.4349   -3.0701    0.0000 C   0  0  0  0  0  0  0  0  0  0  0  0
    8.8666   -3.0640    0.0000 C   0  0  0  0  0  0  0  0  0  0  0  0
    9.5807   -3.4731    0.0000 C   0  0  0  0  0  0  0  0  0  0  0  0
    9.5779   -4.3081    0.0000 C   0  0  0  0  0  0  0  0  0  0  0  0
   10.0985   -4.4691    0.0000 C   0  0  0  0  0  0  0  0  0  0  0  0
   10.2193   -5.0006    0.0000 O   0  0  0  0  0  0  0  0  0  0  0  0
   10.4983   -4.0989    0.0000 N   0  0  0  0  0  0  0  0  0  0  0  0
    8.8526   -4.7126    0.0000 C   0  0  0  0  0  0  0  0  0  0  0  0
    5.9743   -2.2517    0.0000 N   0  0  0  0  0  0  0  0  0  0  0  0
    5.9765   -3.0729    0.0000 C   0  0  0  0  0  0  0  0  0  0  0  0
    5.2480   -3.4866    0.0000 S   0  0  0  0  0  0  0  0  0  0  0  0
    4.5545   -3.0696    0.0000 C   0  0  0  0  0  0  0  0  0  0  0  0
    4.5496   -2.2436    0.0000 C   0  0  0  0  0  0  0  0  0  0  0  0
    2.3967   -1.8316    0.0000 C   0  0  0  0  0  0  0  0  0  0  0  0
    1.5798   -2.3425    0.0000 N   0  0  0  0  0  0  0  0  0  0  0  0
    2.3812   -1.0129    0.0000 C   0  0  0  0  0  0  0  0  0  0  0  0
    1.5798   -0.5266    0.0000 N   0  0  0  0  0  0  0  0  0  0  0  0
    3.1140   -0.6116    0.0000 C   0  0  0  0  0  0  0  0  0  0  0  0
    3.8327   -1.0147    0.0000 C   0  0  0  0  0  0  0  0  0  0  0  0
    3.8374   -1.8273    0.0000 C   0  0  0  0  0  0  0  0  0  0  0  0
    5.2480   -1.8522    0.0000 N   0  0  0  0  0  0  0  0  0  0  0  0
    3.1039   -2.2351    0.0000 C   0  0  0  0  0  0  0  0  0  0  0  0
    0.2542   -1.4346    0.0000 O   0  0  0  0  0  0  0  0  0  0  0  0
    1.1720   -1.4766    0.0000 C   0  0  0  0  0  0  0  0  0  0  0  0
  1  2  2  0  0  0  0
  1 11  1  0  0  0  0
  2  4  1  0  0  0  0
  2  5  1  0  0  0  0
  3  4  1  0  0  0  0
  5  6  2  0  0  0  0
  7  8  1  0  0  0  0
  7  6  1  0  0  0  0
  8  9  2  0  0  0  0
  8 10  1  0  0  0  0
 11  7  2  0  0  0  0
 12 13  2  0  0  0  0
 13  3  1  0  0  0  0
 13 14  1  0  0  0  0
 15 16  1  0  0  0  0
 15 14  1  0  0  0  0
 16 24  2  0  0  0  0
 17 18  1  0  0  0  0
 17 25  1  0  0  0  0
 19 17  2  0  0  0  0
 19 21  1  0  0  0  0
 20 19  1  0  0  0  0
 21 22  2  0  0  0  0
 23 16  1  0  0  0  0
 23 22  1  0  0  0  0
 24 12  1  0  0  0  0
 25 23  2  0  0  0  0
 26 27  2  0  0  0  0
 27 20  1  0  0  0  0
 27 18  1  0  0  0  0
M  END
> <ID>
SCHEMBL21156280

> <InChIKey>
RBLGRCPQOIYFAA-UHFFFAOYSA-N

> <MW>
380.43

> <Series_Name>
Series_2

$$$$
SCHEMBL21156281
  Mrv1719007191920592D 0   0.00000     0.00000     0

 25 28  0  0  0  0              1 V2000 
    8.2100   -4.3046    0.0000 C   0  0  0  0  0  0  0  0  0  0  0  0
    8.2122   -3.4770    0.0000 C   0  0  0  0  0  0  0  0  0  0  0  0
    7.4826   -3.0642    0.0000 C   0  0  0  0  0  0  0  0  0  0  0  0
    6.7340   -3.7214    0.0000 N   0  0  0  0  0  0  0  0  0  0  0  0
    9.0328   -2.2595    0.0000 Cl  0  0  0  0  0  0  0  0  0  0  0  0
    8.9412   -3.0647    0.0000 C   0  0  0  0  0  0  0  0  0  0  0  0
    9.6436   -3.4679    0.0000 C   0  0  0  0  0  0  0  0  0  0  0  0
    8.9295   -4.7082    0.0000 C   0  0  0  0  0  0  0  0  0  0  0  0
    9.6318   -4.3036    0.0000 C   0  0  0  0  0  0  0  0  0  0  0  0
    6.0091   -2.2554    0.0000 N   0  0  0  0  0  0  0  0  0  0  0  0
    6.0194   -3.0697    0.0000 C   0  0  0  0  0  0  0  0  0  0  0  0
    5.2841   -3.4798    0.0000 S   0  0  0  0  0  0  0  0  0  0  0  0
    4.5816   -3.0600    0.0000 C   0  0  0  0  0  0  0  0  0  0  0  0
    4.5743   -2.2354    0.0000 C   0  0  0  0  0  0  0  0  0  0  0  0
    3.8513   -1.8248    0.0000 C   0  0  0  0  0  0  0  0  0  0  0  0
    2.4093   -1.8235    0.0000 C   0  0  0  0  0  0  0  0  0  0  0  0
    3.1407   -2.2315    0.0000 C   0  0  0  0  0  0  0  0  0  0  0  0
    1.5949   -2.3279    0.0000 N   0  0  0  0  0  0  0  0  0  0  0  0
    2.4104   -1.0032    0.0000 C   0  0  0  0  0  0  0  0  0  0  0  0
    1.5949   -0.5155    0.0000 N   0  0  0  0  0  0  0  0  0  0  0  0
    3.1321   -0.6098    0.0000 C   0  0  0  0  0  0  0  0  0  0  0  0
    5.2841   -1.8366    0.0000 N   0  0  0  0  0  0  0  0  0  0  0  0
    3.8527   -1.0000    0.0000 C   0  0  0  0  0  0  0  0  0  0  0  0
    0.2577   -1.4177    0.0000 O   0  0  0  0  0  0  0  0  0  0  0  0
    1.1791   -1.4862    0.0000 C   0  0  0  0  0  0  0  0  0  0  0  0
  1  2  2  0  0  0  0
  1  8  1  0  0  0  0
  2  3  1  0  0  0  0
  2  6  1  0  0  0  0
  3  4  1  0  0  0  0
  5  6  1  0  0  0  0
  6  7  2  0  0  0  0
  8  9  2  0  0  0  0
  9  7  1  0  0  0  0
 10 11  2  0  0  0  0
 11  4  1  0  0  0  0
 11 12  1  0  0  0  0
 13 14  1  0  0  0  0
 13 12  1  0  0  0  0
 14 22  2  0  0  0  0
 15 14  1  0  0  0  0
 15 23  1  0  0  0  0
 16 17  1  0  0  0  0
 16 19  2  0  0  0  0
 17 15  2  0  0  0  0
 18 16  1  0  0  0  0
 19 20  1  0  0  0  0
 19 21  1  0  0  0  0
 21 23  2  0  0  0  0
 22 10  1  0  0  0  0
 24 25  2  0  0  0  0
 25 20  1  0  0  0  0
 25 18  1  0  0  0  0
M  END
> <ID>
SCHEMBL21156281

> <InChIKey>
RBCSVTVZZDFGMB-UHFFFAOYSA-N

> <MW>
371.84

> <Series_Name>
Series_2

$$$$
SCHEMBL21156284
  Mrv1719007191920592D 0   0.00000     0.00000     0

 25 28  0  0  0  0              1 V2000 
    8.0779   -3.4676    0.0000 C   0  0  0  0  0  0  0  0  0  0  0  0
    8.0790   -4.3126    0.0000 C   0  0  0  0  0  0  0  0  0  0  0  0
    7.3632   -3.0743    0.0000 C   0  0  0  0  0  0  0  0  0  0  0  0
    6.6351   -3.7252    0.0000 N   0  0  0  0  0  0  0  0  0  0  0  0
    8.7978   -3.0647    0.0000 C   0  0  0  0  0  0  0  0  0  0  0  0
    9.5107   -3.4760    0.0000 C   0  0  0  0  0  0  0  0  0  0  0  0
   10.2164   -3.0697    0.0000 F   0  0  0  0  0  0  0  0  0  0  0  0
    9.5029   -4.3187    0.0000 C   0  0  0  0  0  0  0  0  0  0  0  0
    8.8047   -4.7072    0.0000 C   0  0  0  0  0  0  0  0  0  0  0  0
    3.7975   -1.8397    0.0000 C   0  0  0  0  0  0  0  0  0  0  0  0
    4.5158   -2.2388    0.0000 C   0  0  0  0  0  0  0  0  0  0  0  0
    2.3674   -1.8365    0.0000 C   0  0  0  0  0  0  0  0  0  0  0  0
    3.0794   -2.2402    0.0000 C   0  0  0  0  0  0  0  0  0  0  0  0
    1.5668   -2.3343    0.0000 N   0  0  0  0  0  0  0  0  0  0  0  0
    2.3718   -0.9988    0.0000 C   0  0  0  0  0  0  0  0  0  0  0  0
    1.5668   -0.5116    0.0000 N   0  0  0  0  0  0  0  0  0  0  0  0
    3.0803   -0.5915    0.0000 C   0  0  0  0  0  0  0  0  0  0  0  0
    3.8009   -0.9969    0.0000 C   0  0  0  0  0  0  0  0  0  0  0  0
    5.2121   -1.8386    0.0000 N   0  0  0  0  0  0  0  0  0  0  0  0
    4.5266   -3.0734    0.0000 C   0  0  0  0  0  0  0  0  0  0  0  0
    5.2121   -3.5014    0.0000 S   0  0  0  0  0  0  0  0  0  0  0  0
    5.9156   -2.2543    0.0000 N   0  0  0  0  0  0  0  0  0  0  0  0
    5.9326   -3.0732    0.0000 C   0  0  0  0  0  0  0  0  0  0  0  0
    0.2558   -1.4389    0.0000 O   0  0  0  0  0  0  0  0  0  0  0  0
    1.1253   -1.3677    0.0000 C   0  0  0  0  0  0  0  0  0  0  0  0
  1  2  2  0  0  0  0
  1  5  1  0  0  0  0
  2  9  1  0  0  0  0
  3  4  1  0  0  0  0
  3  1  1  0  0  0  0
  5  6  2  0  0  0  0
  6  7  1  0  0  0  0
  8  6  1  0  0  0  0
  9  8  2  0  0  0  0
 10 11  1  0  0  0  0
 10 18  1  0  0  0  0
 11 19  2  0  0  0  0
 12 13  1  0  0  0  0
 12 15  2  0  0  0  0
 13 10  2  0  0  0  0
 14 12  1  0  0  0  0
 15 16  1  0  0  0  0
 15 17  1  0  0  0  0
 17 18  2  0  0  0  0
 19 22  1  0  0  0  0
 20 11  1  0  0  0  0
 20 21  1  0  0  0  0
 22 23  2  0  0  0  0
 23  4  1  0  0  0  0
 23 21  1  0  0  0  0
 24 25  2  0  0  0  0
 25 16  1  0  0  0  0
 25 14  1  0  0  0  0
M  END
> <ID>
SCHEMBL21156284

> <InChIKey>
LJIRTPKXDSSMLG-UHFFFAOYSA-N

> <MW>
355.39

> <Series_Name>
Series_2

$$$$
SCHEMBL21156431
  Mrv1719007191921392D 0   0.00000     0.00000     0

 33 36  0  0  0  0              1 V2000 
    1.5511   -3.5694    0.0000 C   0  0  0  0  0  0  0  0  0  0  0  0
    1.5417   -2.7377    0.0000 C   0  0  0  0  0  0  0  0  0  0  0  0
    0.8045   -2.3472    0.0000 C   0  0  0  0  0  0  0  0  0  0  0  0
    0.1229   -2.7447    0.0000 C   0  0  0  0  0  0  0  0  0  0  0  0
    0.1163   -3.5587    0.0000 C   0  0  0  0  0  0  0  0  0  0  0  0
    0.8392   -3.9413    0.0000 N   0  0  0  0  0  0  0  0  0  0  0  0
    2.2630   -3.9812    0.0000 C   0  0  0  0  0  0  0  0  0  0  0  0
    2.9672   -3.5517    0.0000 O   0  0  0  0  0  0  0  0  0  0  0  0
    2.2590   -2.2994    0.0000 C   0  0  0  0  0  0  0  0  0  0  0  0
    2.9715   -2.7425    0.0000 C   0  0  0  0  0  0  0  0  0  0  0  0
    2.2535   -1.5153    0.0000 C   0  0  0  0  0  0  0  0  0  0  0  0
    2.9696   -1.0904    0.0000 C   0  0  0  0  0  0  0  0  0  0  0  0
    3.1106   -0.2775    0.0000 Br  0  0  0  0  0  0  0  0  0  0  0  0
    3.7088   -1.5160    0.0000 C   0  0  0  0  0  0  0  0  0  0  0  0
    4.4212   -1.1078    0.0000 C   0  0  0  0  0  0  0  0  0  0  0  0
    5.1544   -1.5063    0.0000 C   0  0  0  0  0  0  0  0  0  0  0  0
    5.7986   -1.1111    0.0000 C   0  0  0  0  0  0  0  0  0  0  0  0
    5.8445   -0.2398    0.0000 O   0  0  0  0  0  0  0  0  0  0  0  0
    7.2981   -0.2548    0.0000 O   0  0  0  0  0  0  0  0  0  0  0  0
    7.3801   -1.1182    0.0000 C   0  0  0  0  0  0  0  0  0  0  0  0
    8.0297   -1.5091    0.0000 C   0  0  0  0  0  0  0  0  0  0  0  0
    8.7403   -1.0957    0.0000 C   0  0  0  0  0  0  0  0  0  0  0  0
    9.4820   -1.5173    0.0000 C   0  0  0  0  0  0  0  0  0  0  0  0
   10.2038   -1.1025    0.0000 C   0  0  0  0  0  0  0  0  0  0  0  0
   10.9158   -1.5151    0.0000 C   0  0  0  0  0  0  0  0  0  0  0  0
   11.7020   -1.2261    0.0000 C   0  0  0  0  0  0  0  0  0  0  0  0
   12.1716   -1.9222    0.0000 C   0  0  0  0  0  0  0  0  0  0  0  0
   11.6862   -2.5893    0.0000 C   0  0  0  0  0  0  0  0  0  0  0  0
   10.9125   -2.3255    0.0000 C   0  0  0  0  0  0  0  0  0  0  0  0
   10.1679   -2.7192    0.0000 C   0  0  0  0  0  0  0  0  0  0  0  0
    9.4795   -2.3371    0.0000 C   0  0  0  0  0  0  0  0  0  0  0  0
    6.5863   -1.5086    0.0000 C   0  0  0  0  0  0  0  0  0  0  0  0
    3.7102   -2.3332    0.0000 C   0  0  0  0  0  0  0  0  0  0  0  0
  1  2  1  0  0  0  0
  1  7  1  0  0  0  0
  3  2  2  0  0  0  0
  4  3  1  0  0  0  0
  5  6  1  0  0  0  0
  5  4  2  0  0  0  0
  6  1  2  0  0  0  0
  7  8  1  0  0  0  0
  8 10  1  0  0  0  0
  9 10  1  0  0  0  0
 10 33  2  0  0  0  0
 11  9  2  0  0  0  0
 11 12  1  0  0  0  0
 12 14  2  0  0  0  0
 13 12  1  0  0  0  0
 14 15  1  0  0  0  0
 15 16  2  0  0  0  0
 16 17  1  0  0  0  0
 17 18  2  0  0  0  0
 19 20  2  0  0  0  0
 20 21  1  0  0  0  0
 20 32  1  0  0  0  0
 21 22  2  0  0  0  0
 22 23  1  0  0  0  0
 23 31  1  0  0  0  0
 23 24  2  0  0  0  0
 24 25  1  0  0  0  0
 25 26  1  0  0  0  0
 27 26  1  0  0  0  0
 28 27  2  0  0  0  0
 28 29  1  0  0  0  0
 29 25  2  0  0  0  0
 30 29  1  0  0  0  0
 31 30  2  0  0  0  0
 32 17  1  0  0  0  0
 33 14  1  0  0  0  0
M  END
> <ID>
SCHEMBL21156431

> <InChIKey>
XGOIQGJSOKXTOB-TXSAMIJNSA-N

> <MW>
500.392

> <Series_Name>
Series_8

$$$$
SCHEMBL21156456
  Mrv1719007191921412D 0   0.00000     0.00000     0

 30 31  0  0  0  0              1 V2000 
    2.0262   -2.7462    0.0000 C   0  0  0  0  0  0  0  0  0  0  0  0
    2.7484   -2.3414    0.0000 C   0  0  0  0  0  0  0  0  0  0  0  0
    3.4374   -2.7192    0.0000 O   0  0  0  0  0  0  0  0  0  0  0  0
    1.3237   -2.2985    0.0000 N   0  0  0  0  0  0  0  0  0  0  0  0
    4.1535   -2.3388    0.0000 C   0  0  0  0  0  0  0  0  0  0  0  0
    4.1631   -1.4918    0.0000 C   0  0  0  0  0  0  0  0  0  0  0  0
    4.8508   -1.0796    0.0000 C   0  0  0  0  0  0  0  0  0  0  0  0
    5.5619   -1.4927    0.0000 C   0  0  0  0  0  0  0  0  0  0  0  0
    6.3316   -1.0930    0.0000 C   0  0  0  0  0  0  0  0  0  0  0  0
    6.9741   -1.4882    0.0000 C   0  0  0  0  0  0  0  0  0  0  0  0
    7.6548   -0.1847    0.0000 O   0  0  0  0  0  0  0  0  0  0  0  0
    7.7166   -1.0636    0.0000 C   0  0  0  0  0  0  0  0  0  0  0  0
    8.3723   -1.4736    0.0000 C   0  0  0  0  0  0  0  0  0  0  0  0
    9.0355   -1.0565    0.0000 C   0  0  0  0  0  0  0  0  0  0  0  0
    9.7735   -1.4731    0.0000 C   0  0  0  0  0  0  0  0  0  0  0  0
   10.4580   -1.0626    0.0000 C   0  0  0  0  0  0  0  0  0  0  0  0
   11.1926   -1.4762    0.0000 C   0  0  0  0  0  0  0  0  0  0  0  0
   11.9001   -1.0519    0.0000 C   0  0  0  0  0  0  0  0  0  0  0  0
   12.6084   -1.4771    0.0000 C   0  0  0  0  0  0  0  0  0  0  0  0
   12.6068   -2.3077    0.0000 C   0  0  0  0  0  0  0  0  0  0  0  0
   13.3087   -2.6781    0.0000 O   0  0  0  0  0  0  0  0  0  0  0  0
   11.1929   -2.3065    0.0000 C   0  0  0  0  0  0  0  0  0  0  0  0
   11.9081   -2.7255    0.0000 C   0  0  0  0  0  0  0  0  0  0  0  0
    4.8597   -2.7461    0.0000 C   0  0  0  0  0  0  0  0  0  0  0  0
    5.5600   -2.3305    0.0000 C   0  0  0  0  0  0  0  0  0  0  0  0
   14.0294   -2.3053    0.0000 C   0  0  0  0  0  0  0  0  0  0  0  0
   14.7072   -2.7201    0.0000 C   0  0  0  0  0  0  0  0  0  0  0  0
   15.2175   -2.5251    0.0000 N   0  0  0  0  0  0  0  0  0  0  0  0
   15.6417   -2.8697    0.0000 Cl  0  0  0  0  0  0  0  0  0  0  0  0
    9.0606   -0.1847    0.0000 O   0  0  0  0  0  0  0  0  0  0  0  0
  1  2  1  0  0  0  0
  1  4  1  0  0  0  0
  2  3  1  0  0  0  0
  3  5  1  0  0  0  0
  5  6  2  0  0  0  0
  5 24  1  0  0  0  0
  6  7  1  0  0  0  0
  7  8  2  0  0  0  0
  8  9  1  0  0  0  0
  9 10  2  0  0  0  0
 11 12  2  0  0  0  0
 12 13  1  0  0  0  0
 12 10  1  0  0  0  0
 13 14  1  0  0  0  0
 14 30  2  0  0  0  0
 15 14  1  0  0  0  0
 15 16  2  0  0  0  0
 16 17  1  0  0  0  0
 17 18  2  0  0  0  0
 17 22  1  0  0  0  0
 18 19  1  0  0  0  0
 20 19  2  0  0  0  0
 21 20  1  0  0  0  0
 22 23  2  0  0  0  0
 23 20  1  0  0  0  0
 24 25  2  0  0  0  0
 25  8  1  0  0  0  0
 26 21  1  0  0  0  0
 26 27  1  0  0  0  0
 27 28  1  0  0  0  0
 28 29  1  0  0  0  0
M  END
> <ID>
SCHEMBL21156456

> <InChIKey>
CUSQAJPFFIHBAM-FACPPWRESA-N

> <MW>
428.91

> <Series_Name>
Series_8

$$$$
SCHEMBL21156469
  Mrv1719007191921422D 0   0.00000     0.00000     0

 38 39  0  0  0  0              1 V2000 
   12.5027   -3.4159    0.0000 C   0  0  0  0  0  0  0  0  0  0  0  0
   13.0454   -3.5827    0.0000 N   0  0  0  0  0  0  0  0  0  0  0  0
    0.1706   -2.7982    0.0000 C   0  0  0  0  0  0  0  0  0  0  0  0
    0.8862   -2.3867    0.0000 C   0  0  0  0  0  0  0  0  0  0  0  0
    1.5806   -2.7714    0.0000 O   0  0  0  0  0  0  0  0  0  0  0  0
    0.3003   -3.6038    0.0000 N   0  0  0  0  0  0  0  0  0  0  0  0
    2.3026   -2.3813    0.0000 C   0  0  0  0  0  0  0  0  0  0  0  0
    3.0157   -2.7962    0.0000 C   0  0  0  0  0  0  0  0  0  0  0  0
    2.3048   -1.5404    0.0000 C   0  0  0  0  0  0  0  0  0  0  0  0
    3.0161   -1.1211    0.0000 C   0  0  0  0  0  0  0  0  0  0  0  0
    3.7179   -1.5322    0.0000 C   0  0  0  0  0  0  0  0  0  0  0  0
    4.3797   -1.1719    0.0000 C   0  0  0  0  0  0  0  0  0  0  0  0
    4.5575   -0.2423    0.0000 C   0  0  0  0  0  0  0  0  0  0  0  0
    5.7748   -1.1443    0.0000 C   0  0  0  0  0  0  0  0  0  0  0  0
    5.8167   -0.2318    0.0000 O   0  0  0  0  0  0  0  0  0  0  0  0
    6.5384   -1.5260    0.0000 C   0  0  0  0  0  0  0  0  0  0  0  0
    5.1089   -1.5965    0.0000 C   0  0  0  0  0  0  0  0  0  0  0  0
    3.0032   -3.6038    0.0000 O   0  0  0  0  0  0  0  0  0  0  0  0
    3.7042   -2.3859    0.0000 C   0  0  0  0  0  0  0  0  0  0  0  0
   11.5069   -2.7608    0.0000 O   0  0  0  0  0  0  0  0  0  0  0  0
   12.2146   -2.3610    0.0000 C   0  0  0  0  0  0  0  0  0  0  0  0
   12.8988   -2.7715    0.0000 C   0  0  0  0  0  0  0  0  0  0  0  0
    8.6459   -1.0432    0.0000 C   0  0  0  0  0  0  0  0  0  0  0  0
    9.3822   -1.5218    0.0000 C   0  0  0  0  0  0  0  0  0  0  0  0
   10.0925   -1.1104    0.0000 C   0  0  0  0  0  0  0  0  0  0  0  0
   10.8029   -2.3719    0.0000 C   0  0  0  0  0  0  0  0  0  0  0  0
   10.0884   -2.7763    0.0000 C   0  0  0  0  0  0  0  0  0  0  0  0
   10.0843   -3.5827    0.0000 O   0  0  0  0  0  0  0  0  0  0  0  0
   10.8028   -1.5300    0.0000 C   0  0  0  0  0  0  0  0  0  0  0  0
    9.3984   -2.3823    0.0000 C   0  0  0  0  0  0  0  0  0  0  0  0
    7.3264   -1.1396    0.0000 C   0  0  0  0  0  0  0  0  0  0  0  0
    7.2287   -0.2318    0.0000 O   0  0  0  0  0  0  0  0  0  0  0  0
    8.0875   -2.3393    0.0000 C   0  0  0  0  0  0  0  0  0  0  0  0
    7.9189   -1.4661    0.0000 C   0  0  0  0  0  0  0  0  0  0  0  0
    3.8567   -4.0253    0.0000 C   0  0  0  0  0  0  0  0  0  0  0  0
    9.1623   -4.0148    0.0000 C   0  0  0  0  0  0  0  0  0  0  0  0
    5.2740   -2.3393    0.0000 C   0  0  0  0  0  0  0  0  0  0  0  0
    8.7935   -0.2371    0.0000 C   0  0  0  0  0  0  0  0  0  0  0  0
  1  2  1  0  0  0  0
  2 22  1  0  0  0  0
  3  4  1  0  0  0  0
  5  4  1  0  0  0  0
  5  7  1  0  0  0  0
  6  3  1  0  0  0  0
  7  8  1  0  0  0  0
  7  9  2  0  0  0  0
  8 19  2  0  0  0  0
  9 10  1  0  0  0  0
 10 11  2  0  0  0  0
 11 12  1  0  0  0  0
 12 17  2  0  0  0  0
 13 12  1  0  0  0  0
 14 15  2  0  0  0  0
 16 14  1  0  0  0  0
 17 14  1  0  0  0  0
 17 37  1  0  0  0  0
 18  8  1  0  0  0  0
 18 35  1  0  0  0  0
 19 11  1  0  0  0  0
 20 21  1  0  0  0  0
 21 22  1  0  0  0  0
 23 24  1  0  0  0  0
 23 38  1  0  0  0  0
 24 25  2  0  0  0  0
 24 30  1  0  0  0  0
 25 29  1  0  0  0  0
 26 20  1  0  0  0  0
 27 26  1  0  0  0  0
 27 28  1  0  0  0  0
 29 26  2  0  0  0  0
 30 27  2  0  0  0  0
 31 16  1  0  0  0  0
 31 34  1  0  0  0  0
 32 31  2  0  0  0  0
 33 34  1  0  0  0  0
 34 23  2  0  0  0  0
 36 28  1  0  0  0  0
M  END
> <ID>
SCHEMBL21156469

> <InChIKey>
CTGWTMKGGMGTKA-FLFKKZLDSA-N

> <MW>
524.658

> <Series_Name>
Series_8

$$$$
SCHEMBL21156476
  Mrv1719007191921442D 0   0.00000     0.00000     0

 35 36  0  0  0  0              1 V2000 
    1.3402   -2.3875    0.0000 C   0  0  0  0  0  0  0  0  0  0  0  0
    1.9940   -2.7838    0.0000 C   0  0  0  0  0  0  0  0  0  0  0  0
    2.9061   -2.4251    0.0000 C   0  0  0  0  0  0  0  0  0  0  0  0
    3.4298   -2.7726    0.0000 O   0  0  0  0  0  0  0  0  0  0  0  0
    0.5195   -2.9883    0.0000 C   0  0  0  0  0  0  0  0  0  0  0  0
    4.1542   -2.3378    0.0000 C   0  0  0  0  0  0  0  0  0  0  0  0
    4.1586   -1.5220    0.0000 C   0  0  0  0  0  0  0  0  0  0  0  0
    3.4298   -1.1296    0.0000 O   0  0  0  0  0  0  0  0  0  0  0  0
    4.8618   -1.1360    0.0000 C   0  0  0  0  0  0  0  0  0  0  0  0
    5.5556   -1.5148    0.0000 C   0  0  0  0  0  0  0  0  0  0  0  0
    6.3790   -1.1450    0.0000 C   0  0  0  0  0  0  0  0  0  0  0  0
    9.2009   -0.3286    0.0000 O   0  0  0  0  0  0  0  0  0  0  0  0
    9.2457   -1.1219    0.0000 C   0  0  0  0  0  0  0  0  0  0  0  0
    9.8713   -1.5121    0.0000 C   0  0  0  0  0  0  0  0  0  0  0  0
   10.6567   -1.1142    0.0000 C   0  0  0  0  0  0  0  0  0  0  0  0
   11.3109   -1.5181    0.0000 C   0  0  0  0  0  0  0  0  0  0  0  0
   12.0319   -1.1098    0.0000 C   0  0  0  0  0  0  0  0  0  0  0  0
   12.7186   -1.4969    0.0000 C   0  0  0  0  0  0  0  0  0  0  0  0
   13.4523   -1.0885    0.0000 O   0  0  0  0  0  0  0  0  0  0  0  0
   12.7437   -2.3215    0.0000 C   0  0  0  0  0  0  0  0  0  0  0  0
   13.4729   -2.7521    0.0000 O   0  0  0  0  0  0  0  0  0  0  0  0
   11.9872   -2.7412    0.0000 C   0  0  0  0  0  0  0  0  0  0  0  0
   11.3250   -2.3466    0.0000 C   0  0  0  0  0  0  0  0  0  0  0  0
    8.4469   -1.5126    0.0000 C   0  0  0  0  0  0  0  0  0  0  0  0
    7.7753   -1.1326    0.0000 C   0  0  0  0  0  0  0  0  0  0  0  0
    7.0332   -1.5147    0.0000 C   0  0  0  0  0  0  0  0  0  0  0  0
    4.9000   -2.7877    0.0000 C   0  0  0  0  0  0  0  0  0  0  0  0
    5.5940   -2.3346    0.0000 C   0  0  0  0  0  0  0  0  0  0  0  0
   14.1750   -2.3344    0.0000 C   0  0  0  0  0  0  0  0  0  0  0  0
   14.9686   -2.7059    0.0000 C   0  0  0  0  0  0  0  0  0  0  0  0
   15.6176   -2.3427    0.0000 C   0  0  0  0  0  0  0  0  0  0  0  0
   16.5033   -2.7883    0.0000 Br  0  0  0  0  0  0  0  0  0  0  0  0
    2.7213   -1.5186    0.0000 C   0  0  0  0  0  0  0  0  0  0  0  0
   14.1904   -1.5259    0.0000 C   0  0  0  0  0  0  0  0  0  0  0  0
    7.7222   -0.2876    0.0000 O   0  0  0  0  0  0  0  0  0  0  0  0
  1  2  1  0  0  0  0
  1  5  1  0  0  0  0
  2  3  1  0  0  0  0
  3  4  1  0  0  0  0
  6  4  1  0  0  0  0
  6  7  2  0  0  0  0
  6 27  1  0  0  0  0
  7  8  1  0  0  0  0
  7  9  1  0  0  0  0
  9 10  2  0  0  0  0
 10 11  1  0  0  0  0
 10 28  1  0  0  0  0
 11 26  2  0  0  0  0
 12 13  2  0  0  0  0
 13 14  1  0  0  0  0
 13 24  1  0  0  0  0
 14 15  2  0  0  0  0
 15 16  1  0  0  0  0
 16 23  2  0  0  0  0
 17 16  1  0  0  0  0
 17 18  2  0  0  0  0
 18 19  1  0  0  0  0
 18 20  1  0  0  0  0
 19 34  1  0  0  0  0
 20 21  1  0  0  0  0
 22 20  2  0  0  0  0
 23 22  1  0  0  0  0
 25 24  1  0  0  0  0
 25 26  1  0  0  0  0
 27 28  2  0  0  0  0
 29 21  1  0  0  0  0
 29 30  1  0  0  0  0
 30 31  1  0  0  0  0
 31 32  1  0  0  0  0
 33  8  1  0  0  0  0
 35 25  2  0  0  0  0
M  END
> <ID>
SCHEMBL21156476

> <InChIKey>
NLWDRVRJAXHRGI-MKICQXMISA-N

> <MW>
545.47

> <Series_Name>
Series_8

$$$$
SCHEMBL21156484
  Mrv1719007191921462D 0   0.00000     0.00000     0

 34 35  0  0  0  0              1 V2000 
    6.3439   -2.6684    0.0000 O   0  0  0  0  0  0  0  0  0  0  0  0
    6.4945   -3.5094    0.0000 C   0  0  0  0  0  0  0  0  0  0  0  0
   10.6113   -2.6684    0.0000 O   0  0  0  0  0  0  0  0  0  0  0  0
   10.7514   -3.4990    0.0000 C   0  0  0  0  0  0  0  0  0  0  0  0
    1.3498   -2.2635    0.0000 N   0  0  0  0  0  0  0  0  0  0  0  0
    2.0695   -2.7153    0.0000 C   0  0  0  0  0  0  0  0  0  0  0  0
    2.7724   -2.2946    0.0000 C   0  0  0  0  0  0  0  0  0  0  0  0
    3.4887   -2.6788    0.0000 O   0  0  0  0  0  0  0  0  0  0  0  0
    4.9183   -2.7177    0.0000 C   0  0  0  0  0  0  0  0  0  0  0  0
    4.2095   -2.2943    0.0000 C   0  0  0  0  0  0  0  0  0  0  0  0
    4.9153   -1.0551    0.0000 C   0  0  0  0  0  0  0  0  0  0  0  0
    5.6282   -1.4507    0.0000 C   0  0  0  0  0  0  0  0  0  0  0  0
    6.3518   -1.0544    0.0000 C   0  0  0  0  0  0  0  0  0  0  0  0
    7.0583   -1.4497    0.0000 C   0  0  0  0  0  0  0  0  0  0  0  0
    9.2736   -1.0279    0.0000 C   0  0  0  0  0  0  0  0  0  0  0  0
    8.4655   -1.4380    0.0000 C   0  0  0  0  0  0  0  0  0  0  0  0
   10.6124   -1.0322    0.0000 C   0  0  0  0  0  0  0  0  0  0  0  0
   11.3339   -1.4434    0.0000 C   0  0  0  0  0  0  0  0  0  0  0  0
   12.0552   -1.0329    0.0000 C   0  0  0  0  0  0  0  0  0  0  0  0
   12.7670   -1.4539    0.0000 C   0  0  0  0  0  0  0  0  0  0  0  0
   12.7725   -2.2680    0.0000 C   0  0  0  0  0  0  0  0  0  0  0  0
   13.4769   -2.6580    0.0000 O   0  0  0  0  0  0  0  0  0  0  0  0
   12.0493   -2.6998    0.0000 C   0  0  0  0  0  0  0  0  0  0  0  0
   11.3283   -2.2653    0.0000 C   0  0  0  0  0  0  0  0  0  0  0  0
    9.9029   -1.4389    0.0000 C   0  0  0  0  0  0  0  0  0  0  0  0
    7.8201   -1.0376    0.0000 C   0  0  0  0  0  0  0  0  0  0  0  0
    5.6376   -2.2851    0.0000 C   0  0  0  0  0  0  0  0  0  0  0  0
    4.2136   -1.4861    0.0000 C   0  0  0  0  0  0  0  0  0  0  0  0
   14.1940   -2.2702    0.0000 C   0  0  0  0  0  0  0  0  0  0  0  0
   14.9138   -2.6827    0.0000 C   0  0  0  0  0  0  0  0  0  0  0  0
   15.4255   -2.4896    0.0000 N   0  0  0  0  0  0  0  0  0  0  0  0
   15.8487   -2.8362    0.0000 Cl  0  0  0  0  0  0  0  0  0  0  0  0
    7.7560   -0.1765    0.0000 O   0  0  0  0  0  0  0  0  0  0  0  0
    9.1784   -0.1765    0.0000 O   0  0  0  0  0  0  0  0  0  0  0  0
  1  2  1  0  0  0  0
  3  4  1  0  0  0  0
  3 24  1  0  0  0  0
  5  6  1  0  0  0  0
  6  7  1  0  0  0  0
  7  8  1  0  0  0  0
  8 10  1  0  0  0  0
  9 10  1  0  0  0  0
  9 27  2  0  0  0  0
 10 28  2  0  0  0  0
 11 12  2  0  0  0  0
 12 13  1  0  0  0  0
 13 14  2  0  0  0  0
 15 16  1  0  0  0  0
 15 25  1  0  0  0  0
 17 18  1  0  0  0  0
 18 19  2  0  0  0  0
 18 24  1  0  0  0  0
 19 20  1  0  0  0  0
 20 21  2  0  0  0  0
 21 22  1  0  0  0  0
 22 29  1  0  0  0  0
 23 21  1  0  0  0  0
 24 23  2  0  0  0  0
 25 17  2  0  0  0  0
 26 16  1  0  0  0  0
 26 14  1  0  0  0  0
 27  1  1  0  0  0  0
 27 12  1  0  0  0  0
 28 11  1  0  0  0  0
 29 30  1  0  0  0  0
 30 31  1  0  0  0  0
 31 32  1  0  0  0  0
 33 26  2  0  0  0  0
 34 15  2  0  0  0  0
M  END
> <ID>
SCHEMBL21156484

> <InChIKey>
HXTUDTBTQGQYAL-FCXRPNKRSA-N

> <MW>
488.97

> <Series_Name>
Series_8

$$$$
SCHEMBL21156488
  Mrv1719007191921462D 0   0.00000     0.00000     0

 35 37  0  0  0  0              1 V2000 
    1.4957   -4.0679    0.0000 C   0  0  0  0  0  0  0  0  0  0  0  0
    1.4595   -3.1755    0.0000 C   0  0  0  0  0  0  0  0  0  0  0  0
    0.1243   -4.0619    0.0000 C   0  0  0  0  0  0  0  0  0  0  0  0
    0.1295   -3.2071    0.0000 C   0  0  0  0  0  0  0  0  0  0  0  0
    0.7953   -4.5738    0.0000 C   0  0  0  0  0  0  0  0  0  0  0  0
    0.8087   -2.7983    0.0000 C   0  0  0  0  0  0  0  0  0  0  0  0
    2.8801   -4.0524    0.0000 O   0  0  0  0  0  0  0  0  0  0  0  0
    2.1974   -4.4855    0.0000 C   0  0  0  0  0  0  0  0  0  0  0  0
    0.9305   -4.4210    0.0000 C   0  0  0  0  0  0  0  0  0  0  0  0
    2.2347   -2.8162    0.0000 C   0  0  0  0  0  0  0  0  0  0  0  0
    2.8904   -3.2239    0.0000 C   0  0  0  0  0  0  0  0  0  0  0  0
    2.1964   -1.9641    0.0000 C   0  0  0  0  0  0  0  0  0  0  0  0
    2.9041   -1.5434    0.0000 C   0  0  0  0  0  0  0  0  0  0  0  0
    2.8801   -0.6657    0.0000 O   0  0  0  0  0  0  0  0  0  0  0  0
    3.6099   -1.9739    0.0000 C   0  0  0  0  0  0  0  0  0  0  0  0
    4.2423   -1.5631    0.0000 C   0  0  0  0  0  0  0  0  0  0  0  0
    4.9881   -1.9612    0.0000 C   0  0  0  0  0  0  0  0  0  0  0  0
    5.5962   -1.5781    0.0000 C   0  0  0  0  0  0  0  0  0  0  0  0
    5.6735   -0.6368    0.0000 O   0  0  0  0  0  0  0  0  0  0  0  0
    6.4189   -1.9625    0.0000 C   0  0  0  0  0  0  0  0  0  0  0  0
    7.0016   -1.5729    0.0000 C   0  0  0  0  0  0  0  0  0  0  0  0
    7.0340   -0.6803    0.0000 O   0  0  0  0  0  0  0  0  0  0  0  0
    9.1115   -1.9904    0.0000 C   0  0  0  0  0  0  0  0  0  0  0  0
    9.8052   -1.5849    0.0000 C   0  0  0  0  0  0  0  0  0  0  0  0
   10.5037   -2.0084    0.0000 C   0  0  0  0  0  0  0  0  0  0  0  0
   11.2016   -1.5527    0.0000 C   0  0  0  0  0  0  0  0  0  0  0  0
   10.4842   -2.8473    0.0000 C   0  0  0  0  0  0  0  0  0  0  0  0
   11.7902   -2.4578    0.0000 C   0  0  0  0  0  0  0  0  0  0  0  0
   11.1782   -3.2564    0.0000 C   0  0  0  0  0  0  0  0  0  0  0  0
    9.8063   -3.2584    0.0000 C   0  0  0  0  0  0  0  0  0  0  0  0
    9.1029   -2.8079    0.0000 C   0  0  0  0  0  0  0  0  0  0  0  0
    8.3828   -1.5862    0.0000 C   0  0  0  0  0  0  0  0  0  0  0  0
    7.7939   -1.9663    0.0000 C   0  0  0  0  0  0  0  0  0  0  0  0
    3.5605   -2.8261    0.0000 C   0  0  0  0  0  0  0  0  0  0  0  0
    1.9032   -0.2750    0.0000 C   0  0  0  0  0  0  0  0  0  0  0  0
  1  2  1  0  0  0  0
  1  8  1  0  0  0  0
  3  4  2  0  0  0  0
  4  6  1  0  0  0  0
  5  3  1  0  0  0  0
  6  2  2  0  0  0  0
  7  8  1  0  0  0  0
  7 11  1  0  0  0  0
  9  1  2  0  0  0  0
 10 11  1  0  0  0  0
 11 34  2  0  0  0  0
 12 10  2  0  0  0  0
 12 13  1  0  0  0  0
 13 15  2  0  0  0  0
 14 13  1  0  0  0  0
 15 16  1  0  0  0  0
 16 17  2  0  0  0  0
 17 18  1  0  0  0  0
 18 19  2  0  0  0  0
 20 18  1  0  0  0  0
 20 21  1  0  0  0  0
 21 22  2  0  0  0  0
 21 33  1  0  0  0  0
 23 24  2  0  0  0  0
 23 31  1  0  0  0  0
 25 26  1  0  0  0  0
 25 24  1  0  0  0  0
 27 25  2  0  0  0  0
 27 29  1  0  0  0  0
 28 26  1  0  0  0  0
 29 28  2  0  0  0  0
 30 27  1  0  0  0  0
 31 30  2  0  0  0  0
 32 23  1  0  0  0  0
 33 32  2  0  0  0  0
 34 15  1  0  0  0  0
 35 14  1  0  0  0  0
M  END
> <ID>
SCHEMBL21156488

> <InChIKey>
RHHQRNICHGGEKN-VPKQWLFZSA-N

> <MW>
466.577

> <Series_Name>
Series_8

$$$$
SCHEMBL21156492
  Mrv1719007191921462D 0   0.00000     0.00000     0

 39 40  0  0  0  0              1 V2000 
    9.4218   -5.1611    0.0000 N   0  0  0  0  0  0  0  0  0  0  0  0
   10.1506   -4.7699    0.0000 C   0  0  0  0  0  0  0  0  0  0  0  0
   10.1506   -3.9501    0.0000 C   0  0  0  0  0  0  0  0  0  0  0  0
   10.8350   -3.4965    0.0000 O   0  0  0  0  0  0  0  0  0  0  0  0
    4.4476   -3.9668    0.0000 C   0  0  0  0  0  0  0  0  0  0  0  0
    3.7164   -3.5175    0.0000 O   0  0  0  0  0  0  0  0  0  0  0  0
    4.4505   -4.7825    0.0000 C   0  0  0  0  0  0  0  0  0  0  0  0
    4.9688   -4.9540    0.0000 N   0  0  0  0  0  0  0  0  0  0  0  0
    5.0795   -5.4886    0.0000 Cl  0  0  0  0  0  0  0  0  0  0  0  0
    2.3031   -2.6904    0.0000 O   0  0  0  0  0  0  0  0  0  0  0  0
    1.6153   -2.3208    0.0000 C   0  0  0  0  0  0  0  0  0  0  0  0
    0.8874   -2.7539    0.0000 C   0  0  0  0  0  0  0  0  0  0  0  0
    1.0155   -3.5280    0.0000 N   0  0  0  0  0  0  0  0  0  0  0  0
    3.7473   -2.7188    0.0000 C   0  0  0  0  0  0  0  0  0  0  0  0
    3.0204   -2.3040    0.0000 C   0  0  0  0  0  0  0  0  0  0  0  0
    3.0182   -1.4669    0.0000 C   0  0  0  0  0  0  0  0  0  0  0  0
    3.7348   -1.0486    0.0000 C   0  0  0  0  0  0  0  0  0  0  0  0
    4.4428   -1.4722    0.0000 C   0  0  0  0  0  0  0  0  0  0  0  0
    5.1421   -1.0487    0.0000 C   0  0  0  0  0  0  0  0  0  0  0  0
    5.8564   -1.4615    0.0000 C   0  0  0  0  0  0  0  0  0  0  0  0
    6.4958   -1.0880    0.0000 C   0  0  0  0  0  0  0  0  0  0  0  0
    6.5533   -0.1780    0.0000 O   0  0  0  0  0  0  0  0  0  0  0  0
    7.3055   -1.4624    0.0000 C   0  0  0  0  0  0  0  0  0  0  0  0
    7.9705   -1.0399    0.0000 C   0  0  0  0  0  0  0  0  0  0  0  0
    8.7126   -1.4580    0.0000 C   0  0  0  0  0  0  0  0  0  0  0  0
    9.4330   -1.0378    0.0000 C   0  0  0  0  0  0  0  0  0  0  0  0
   10.1394   -1.4582    0.0000 C   0  0  0  0  0  0  0  0  0  0  0  0
   10.8584   -1.0355    0.0000 C   0  0  0  0  0  0  0  0  0  0  0  0
   10.1512   -2.2924    0.0000 C   0  0  0  0  0  0  0  0  0  0  0  0
   10.8522   -2.7103    0.0000 C   0  0  0  0  0  0  0  0  0  0  0  0
   11.5586   -1.4636    0.0000 C   0  0  0  0  0  0  0  0  0  0  0  0
   11.5639   -2.2921    0.0000 C   0  0  0  0  0  0  0  0  0  0  0  0
   12.2588   -2.6695    0.0000 O   0  0  0  0  0  0  0  0  0  0  0  0
    4.4492   -2.3028    0.0000 C   0  0  0  0  0  0  0  0  0  0  0  0
   12.9998   -2.2917    0.0000 C   0  0  0  0  0  0  0  0  0  0  0  0
   13.6902   -2.6982    0.0000 C   0  0  0  0  0  0  0  0  0  0  0  0
   13.9786   -3.1617    0.0000 N   0  0  0  0  0  0  0  0  0  0  0  0
   13.7214   -3.6433    0.0000 Cl  0  0  0  0  0  0  0  0  0  0  0  0
    7.9875   -0.1780    0.0000 O   0  0  0  0  0  0  0  0  0  0  0  0
  1  2  1  0  0  0  0
  3  4  1  0  0  0  0
  3  2  1  0  0  0  0
  5  6  1  0  0  0  0
  5  7  1  0  0  0  0
  6 14  1  0  0  0  0
  8  9  1  0  0  0  0
  8  7  1  0  0  0  0
 10 11  1  0  0  0  0
 11 12  1  0  0  0  0
 12 13  1  0  0  0  0
 14 34  2  0  0  0  0
 15 14  1  0  0  0  0
 15 10  1  0  0  0  0
 16 15  2  0  0  0  0
 16 17  1  0  0  0  0
 17 18  2  0  0  0  0
 18 19  1  0  0  0  0
 18 34  1  0  0  0  0
 19 20  2  0  0  0  0
 20 21  1  0  0  0  0
 21 22  2  0  0  0  0
 23 21  1  0  0  0  0
 23 24  1  0  0  0  0
 24 39  2  0  0  0  0
 25 24  1  0  0  0  0
 25 26  2  0  0  0  0
 26 27  1  0  0  0  0
 27 28  2  0  0  0  0
 27 29  1  0  0  0  0
 28 31  1  0  0  0  0
 29 30  2  0  0  0  0
 30  4  1  0  0  0  0
 31 32  2  0  0  0  0
 32 33  1  0  0  0  0
 32 30  1  0  0  0  0
 33 35  1  0  0  0  0
 35 36  1  0  0  0  0
 36 37  1  0  0  0  0
 37 38  1  0  0  0  0
M  END
> <ID>
SCHEMBL21156492

> <InChIKey>
JLYLYWYYIFRMRF-IJIVKGSJSA-N

> <MW>
581.49

> <Series_Name>
Series_8

$$$$
SCHEMBL21156776
  Mrv1719007191922442D 0   0.00000     0.00000     0

 28 31  0  0  0  0              1 V2000 
    8.0890   -3.5166    0.0000 C   0  0  0  0  0  0  0  0  0  0  0  0
    8.0946   -4.3552    0.0000 C   0  0  0  0  0  0  0  0  0  0  0  0
    7.3832   -3.1029    0.0000 C   0  0  0  0  0  0  0  0  0  0  0  0
    6.6333   -3.7788    0.0000 N   0  0  0  0  0  0  0  0  0  0  0  0
    8.9175   -2.5732    0.0000 C   0  0  0  0  0  0  0  0  0  0  0  0
    8.7479   -2.0545    0.0000 F   0  0  0  0  0  0  0  0  0  0  0  0
    8.3837   -2.4608    0.0000 F   0  0  0  0  0  0  0  0  0  0  0  0
    9.4362   -2.4034    0.0000 F   0  0  0  0  0  0  0  0  0  0  0  0
    8.8051   -3.1070    0.0000 C   0  0  0  0  0  0  0  0  0  0  0  0
    9.5210   -3.5120    0.0000 C   0  0  0  0  0  0  0  0  0  0  0  0
    8.8065   -4.7645    0.0000 C   0  0  0  0  0  0  0  0  0  0  0  0
    9.5164   -4.3517    0.0000 C   0  0  0  0  0  0  0  0  0  0  0  0
    5.9266   -2.2836    0.0000 N   0  0  0  0  0  0  0  0  0  0  0  0
    5.9455   -3.1029    0.0000 C   0  0  0  0  0  0  0  0  0  0  0  0
    5.2197   -3.5342    0.0000 S   0  0  0  0  0  0  0  0  0  0  0  0
    4.5276   -3.1004    0.0000 C   0  0  0  0  0  0  0  0  0  0  0  0
    4.5223   -2.2672    0.0000 C   0  0  0  0  0  0  0  0  0  0  0  0
    3.0923   -2.2707    0.0000 C   0  0  0  0  0  0  0  0  0  0  0  0
    3.8243   -1.8524    0.0000 C   0  0  0  0  0  0  0  0  0  0  0  0
    2.3897   -1.8514    0.0000 C   0  0  0  0  0  0  0  0  0  0  0  0
    1.5768   -2.3652    0.0000 N   0  0  0  0  0  0  0  0  0  0  0  0
    2.3748   -1.0116    0.0000 C   0  0  0  0  0  0  0  0  0  0  0  0
    1.5768   -0.5346    0.0000 N   0  0  0  0  0  0  0  0  0  0  0  0
    3.1133   -0.6008    0.0000 C   0  0  0  0  0  0  0  0  0  0  0  0
    3.8168   -1.0141    0.0000 C   0  0  0  0  0  0  0  0  0  0  0  0
    5.2197   -1.8668    0.0000 N   0  0  0  0  0  0  0  0  0  0  0  0
    0.2718   -1.4499    0.0000 O   0  0  0  0  0  0  0  0  0  0  0  0
    1.1434   -1.3663    0.0000 C   0  0  0  0  0  0  0  0  0  0  0  0
  1  2  2  0  0  0  0
  1  9  1  0  0  0  0
  2 11  1  0  0  0  0
  3  4  1  0  0  0  0
  3  1  1  0  0  0  0
  5  6  1  0  0  0  0
  5  7  1  0  0  0  0
  5  8  1  0  0  0  0
  5  9  1  0  0  0  0
  9 10  2  0  0  0  0
 11 12  2  0  0  0  0
 12 10  1  0  0  0  0
 13 14  2  0  0  0  0
 14  4  1  0  0  0  0
 14 15  1  0  0  0  0
 16 17  1  0  0  0  0
 16 15  1  0  0  0  0
 17 26  2  0  0  0  0
 18 19  2  0  0  0  0
 19 17  1  0  0  0  0
 20 21  1  0  0  0  0
 20 18  1  0  0  0  0
 22 20  2  0  0  0  0
 22 24  1  0  0  0  0
 23 22  1  0  0  0  0
 24 25  2  0  0  0  0
 25 19  1  0  0  0  0
 26 13  1  0  0  0  0
 27 28  2  0  0  0  0
 28 23  1  0  0  0  0
 28 21  1  0  0  0  0
M  END
> <ID>
SCHEMBL21156776

> <InChIKey>
SNEPYDKNXNZOAZ-UHFFFAOYSA-N

> <MW>
405.4

> <Series_Name>
Series_2

$$$$
SCHEMBL21156777
  Mrv1719007191922442D 0   0.00000     0.00000     0

 26 29  0  0  0  0              1 V2000 
    8.1454   -3.4740    0.0000 C   0  0  0  0  0  0  0  0  0  0  0  0
    8.1513   -4.3014    0.0000 C   0  0  0  0  0  0  0  0  0  0  0  0
    6.6948   -3.7315    0.0000 N   0  0  0  0  0  0  0  0  0  0  0  0
    7.4363   -3.0572    0.0000 C   0  0  0  0  0  0  0  0  0  0  0  0
    8.8905   -3.0571    0.0000 C   0  0  0  0  0  0  0  0  0  0  0  0
    9.5861   -3.4736    0.0000 C   0  0  0  0  0  0  0  0  0  0  0  0
    9.6015   -4.3069    0.0000 C   0  0  0  0  0  0  0  0  0  0  0  0
   10.0946   -4.5407    0.0000 C   0  0  0  0  0  0  0  0  0  0  0  0
   10.5876   -4.7745    0.0000 N   0  0  0  0  0  0  0  0  0  0  0  0
    8.8855   -4.7168    0.0000 C   0  0  0  0  0  0  0  0  0  0  0  0
    4.5695   -3.0555    0.0000 C   0  0  0  0  0  0  0  0  0  0  0  0
    4.5610   -2.2327    0.0000 C   0  0  0  0  0  0  0  0  0  0  0  0
    3.1237   -2.2159    0.0000 C   0  0  0  0  0  0  0  0  0  0  0  0
    3.8446   -1.8312    0.0000 C   0  0  0  0  0  0  0  0  0  0  0  0
    2.4099   -1.8289    0.0000 C   0  0  0  0  0  0  0  0  0  0  0  0
    1.5914   -2.3322    0.0000 N   0  0  0  0  0  0  0  0  0  0  0  0
    1.5914   -0.5121    0.0000 N   0  0  0  0  0  0  0  0  0  0  0  0
    2.4072   -1.0003    0.0000 C   0  0  0  0  0  0  0  0  0  0  0  0
    3.1077   -0.6000    0.0000 C   0  0  0  0  0  0  0  0  0  0  0  0
    3.8424   -1.0039    0.0000 C   0  0  0  0  0  0  0  0  0  0  0  0
    5.2680   -1.8292    0.0000 N   0  0  0  0  0  0  0  0  0  0  0  0
    5.2680   -3.4937    0.0000 S   0  0  0  0  0  0  0  0  0  0  0  0
    5.9814   -2.2499    0.0000 N   0  0  0  0  0  0  0  0  0  0  0  0
    6.0006   -3.0644    0.0000 C   0  0  0  0  0  0  0  0  0  0  0  0
    0.2561   -1.4268    0.0000 O   0  0  0  0  0  0  0  0  0  0  0  0
    1.1721   -1.4860    0.0000 C   0  0  0  0  0  0  0  0  0  0  0  0
  1  2  2  0  0  0  0
  1  5  1  0  0  0  0
  2 10  1  0  0  0  0
  3  4  1  0  0  0  0
  4  1  1  0  0  0  0
  5  6  2  0  0  0  0
  7  8  1  0  0  0  0
  7  6  1  0  0  0  0
  8  9  3  0  0  0  0
 10  7  2  0  0  0  0
 11 12  1  0  0  0  0
 11 22  1  0  0  0  0
 12 21  2  0  0  0  0
 13 14  2  0  0  0  0
 14 12  1  0  0  0  0
 15 16  1  0  0  0  0
 15 13  1  0  0  0  0
 17 18  1  0  0  0  0
 18 15  2  0  0  0  0
 19 20  2  0  0  0  0
 19 18  1  0  0  0  0
 20 14  1  0  0  0  0
 21 23  1  0  0  0  0
 23 24  2  0  0  0  0
 24  3  1  0  0  0  0
 24 22  1  0  0  0  0
 25 26  2  0  0  0  0
 26 17  1  0  0  0  0
 26 16  1  0  0  0  0
M  END
> <ID>
SCHEMBL21156777

> <InChIKey>
IZZYGLIQBZQQSW-UHFFFAOYSA-N

> <MW>
362.41

> <Series_Name>
Series_2

$$$$
SCHEMBL21156778
  Mrv1719007191922442D 0   0.00000     0.00000     0

 28 31  0  0  0  0              1 V2000 
    8.1174   -4.3048    0.0000 C   0  0  0  0  0  0  0  0  0  0  0  0
    8.1189   -3.4908    0.0000 C   0  0  0  0  0  0  0  0  0  0  0  0
    6.6724   -3.7488    0.0000 N   0  0  0  0  0  0  0  0  0  0  0  0
    7.4122   -3.0913    0.0000 C   0  0  0  0  0  0  0  0  0  0  0  0
    8.8425   -3.0941    0.0000 C   0  0  0  0  0  0  0  0  0  0  0  0
    9.5584   -3.4906    0.0000 C   0  0  0  0  0  0  0  0  0  0  0  0
   10.0568   -3.2684    0.0000 C   0  0  0  0  0  0  0  0  0  0  0  0
   10.3774   -2.8269    0.0000 F   0  0  0  0  0  0  0  0  0  0  0  0
    9.8347   -2.7701    0.0000 F   0  0  0  0  0  0  0  0  0  0  0  0
   10.4983   -3.5890    0.0000 F   0  0  0  0  0  0  0  0  0  0  0  0
    9.5457   -4.3242    0.0000 C   0  0  0  0  0  0  0  0  0  0  0  0
    8.8377   -4.7236    0.0000 C   0  0  0  0  0  0  0  0  0  0  0  0
    5.9550   -2.2600    0.0000 N   0  0  0  0  0  0  0  0  0  0  0  0
    5.9736   -3.0944    0.0000 C   0  0  0  0  0  0  0  0  0  0  0  0
    5.2375   -3.4977    0.0000 S   0  0  0  0  0  0  0  0  0  0  0  0
    4.5449   -3.0792    0.0000 C   0  0  0  0  0  0  0  0  0  0  0  0
    4.5475   -2.2523    0.0000 C   0  0  0  0  0  0  0  0  0  0  0  0
    2.4033   -1.8449    0.0000 C   0  0  0  0  0  0  0  0  0  0  0  0
    1.5784   -2.3497    0.0000 N   0  0  0  0  0  0  0  0  0  0  0  0
    2.3934   -1.0090    0.0000 C   0  0  0  0  0  0  0  0  0  0  0  0
    1.5784   -0.5292    0.0000 N   0  0  0  0  0  0  0  0  0  0  0  0
    3.1210   -0.5957    0.0000 C   0  0  0  0  0  0  0  0  0  0  0  0
    3.8272   -1.0004    0.0000 C   0  0  0  0  0  0  0  0  0  0  0  0
    3.8307   -1.8439    0.0000 C   0  0  0  0  0  0  0  0  0  0  0  0
    5.2375   -1.8475    0.0000 N   0  0  0  0  0  0  0  0  0  0  0  0
    3.1165   -2.2447    0.0000 C   0  0  0  0  0  0  0  0  0  0  0  0
    0.2691   -1.4349    0.0000 O   0  0  0  0  0  0  0  0  0  0  0  0
    1.1729   -1.4913    0.0000 C   0  0  0  0  0  0  0  0  0  0  0  0
  1  2  2  0  0  0  0
  1 12  1  0  0  0  0
  2  4  1  0  0  0  0
  2  5  1  0  0  0  0
  3  4  1  0  0  0  0
  5  6  2  0  0  0  0
  6  7  1  0  0  0  0
  7  8  1  0  0  0  0
  7  9  1  0  0  0  0
  7 10  1  0  0  0  0
 11  6  1  0  0  0  0
 12 11  2  0  0  0  0
 13 14  2  0  0  0  0
 14  3  1  0  0  0  0
 14 15  1  0  0  0  0
 16 17  1  0  0  0  0
 16 15  1  0  0  0  0
 17 25  2  0  0  0  0
 18 19  1  0  0  0  0
 18 26  1  0  0  0  0
 20 18  2  0  0  0  0
 20 22  1  0  0  0  0
 21 20  1  0  0  0  0
 22 23  2  0  0  0  0
 24 23  1  0  0  0  0
 24 17  1  0  0  0  0
 25 13  1  0  0  0  0
 26 24  2  0  0  0  0
 27 28  2  0  0  0  0
 28 21  1  0  0  0  0
 28 19  1  0  0  0  0
M  END
> <ID>
SCHEMBL21156778

> <InChIKey>
LGGQOCQHXVDKFH-UHFFFAOYSA-N

> <MW>
405.4

> <Series_Name>
Series_2

$$$$
SCHEMBL21156779
  Mrv1719007191922442D 0   0.00000     0.00000     0

 27 30  0  0  0  0              1 V2000 
    8.0402   -4.3111    0.0000 C   0  0  0  0  0  0  0  0  0  0  0  0
    8.0413   -3.4911    0.0000 C   0  0  0  0  0  0  0  0  0  0  0  0
    7.3509   -3.0949    0.0000 C   0  0  0  0  0  0  0  0  0  0  0  0
    6.6108   -3.7546    0.0000 N   0  0  0  0  0  0  0  0  0  0  0  0
    8.7622   -3.0899    0.0000 C   0  0  0  0  0  0  0  0  0  0  0  0
    9.4657   -3.4962    0.0000 C   0  0  0  0  0  0  0  0  0  0  0  0
    9.9887   -3.3404    0.0000 C   0  0  0  0  0  0  0  0  0  0  0  0
   10.3850   -3.7154    0.0000 O   0  0  0  0  0  0  0  0  0  0  0  0
   10.1152   -2.8097    0.0000 N   0  0  0  0  0  0  0  0  0  0  0  0
    9.4560   -4.3355    0.0000 C   0  0  0  0  0  0  0  0  0  0  0  0
    8.7621   -4.7325    0.0000 C   0  0  0  0  0  0  0  0  0  0  0  0
    4.4984   -3.0848    0.0000 C   0  0  0  0  0  0  0  0  0  0  0  0
    4.4991   -2.2563    0.0000 C   0  0  0  0  0  0  0  0  0  0  0  0
    3.7990   -1.8476    0.0000 C   0  0  0  0  0  0  0  0  0  0  0  0
    3.0858   -2.2580    0.0000 C   0  0  0  0  0  0  0  0  0  0  0  0
    2.3647   -1.8498    0.0000 C   0  0  0  0  0  0  0  0  0  0  0  0
    1.5809   -2.3533    0.0000 N   0  0  0  0  0  0  0  0  0  0  0  0
    2.3624   -1.0092    0.0000 C   0  0  0  0  0  0  0  0  0  0  0  0
    1.5809   -0.5300    0.0000 N   0  0  0  0  0  0  0  0  0  0  0  0
    3.7939   -1.0104    0.0000 C   0  0  0  0  0  0  0  0  0  0  0  0
    5.1918   -1.8503    0.0000 N   0  0  0  0  0  0  0  0  0  0  0  0
    5.1918   -3.5030    0.0000 S   0  0  0  0  0  0  0  0  0  0  0  0
    3.0875   -0.5989    0.0000 C   0  0  0  0  0  0  0  0  0  0  0  0
    5.9102   -2.2635    0.0000 N   0  0  0  0  0  0  0  0  0  0  0  0
    5.9179   -3.0852    0.0000 C   0  0  0  0  0  0  0  0  0  0  0  0
    0.2695   -1.4371    0.0000 O   0  0  0  0  0  0  0  0  0  0  0  0
    1.1595   -1.5021    0.0000 C   0  0  0  0  0  0  0  0  0  0  0  0
  1  2  2  0  0  0  0
  1 11  1  0  0  0  0
  2  3  1  0  0  0  0
  2  5  1  0  0  0  0
  3  4  1  0  0  0  0
  5  6  2  0  0  0  0
  6  7  1  0  0  0  0
  7  8  2  0  0  0  0
  7  9  1  0  0  0  0
 10  6  1  0  0  0  0
 11 10  2  0  0  0  0
 12 13  1  0  0  0  0
 12 22  1  0  0  0  0
 13 21  2  0  0  0  0
 14 13  1  0  0  0  0
 15 14  2  0  0  0  0
 16 15  1  0  0  0  0
 16 17  1  0  0  0  0
 18 16  2  0  0  0  0
 18 23  1  0  0  0  0
 19 18  1  0  0  0  0
 20 14  1  0  0  0  0
 21 24  1  0  0  0  0
 23 20  2  0  0  0  0
 24 25  2  0  0  0  0
 25  4  1  0  0  0  0
 25 22  1  0  0  0  0
 26 27  2  0  0  0  0
 27 19  1  0  0  0  0
 27 17  1  0  0  0  0
M  END
> <ID>
SCHEMBL21156779

> <InChIKey>
HTOLZBZHWZTPAJ-UHFFFAOYSA-N

> <MW>
380.43

> <Series_Name>
Series_2

$$$$
SCHEMBL21156824
  Mrv1719007191922482D 0   0.00000     0.00000     0

 26 29  0  0  0  0              1 V2000 
    7.2976   -3.2192    0.0000 C   0  0  0  0  0  0  0  0  0  0  0  0
    8.0459   -3.6114    0.0000 C   0  0  0  0  0  0  0  0  0  0  0  0
    6.6461   -3.8378    0.0000 N   0  0  0  0  0  0  0  0  0  0  0  0
    8.7554   -3.2009    0.0000 C   0  0  0  0  0  0  0  0  0  0  0  0
    9.4522   -3.6066    0.0000 C   0  0  0  0  0  0  0  0  0  0  0  0
    9.4579   -4.4466    0.0000 C   0  0  0  0  0  0  0  0  0  0  0  0
   10.1860   -4.8401    0.0000 F   0  0  0  0  0  0  0  0  0  0  0  0
    8.7428   -4.8529    0.0000 C   0  0  0  0  0  0  0  0  0  0  0  0
    8.0537   -4.4470    0.0000 C   0  0  0  0  0  0  0  0  0  0  0  0
    4.5112   -3.1992    0.0000 C   0  0  0  0  0  0  0  0  0  0  0  0
    4.5046   -2.3792    0.0000 C   0  0  0  0  0  0  0  0  0  0  0  0
    2.3715   -1.9643    0.0000 C   0  0  0  0  0  0  0  0  0  0  0  0
    3.0916   -2.3736    0.0000 C   0  0  0  0  0  0  0  0  0  0  0  0
    1.6164   -2.4472    0.0000 N   0  0  0  0  0  0  0  0  0  0  0  0
    2.3835   -1.1349    0.0000 C   0  0  0  0  0  0  0  0  0  0  0  0
    1.6073   -0.8669    0.0000 N   0  0  0  0  0  0  0  0  0  0  0  0
    3.7743   -1.9697    0.0000 C   0  0  0  0  0  0  0  0  0  0  0  0
    5.2375   -1.9505    0.0000 N   0  0  0  0  0  0  0  0  0  0  0  0
    5.2193   -3.6120    0.0000 S   0  0  0  0  0  0  0  0  0  0  0  0
    3.7723   -1.1339    0.0000 C   0  0  0  0  0  0  0  0  0  0  0  0
    3.0884   -0.7310    0.0000 C   0  0  0  0  0  0  0  0  0  0  0  0
    5.9119   -3.2070    0.0000 C   0  0  0  0  0  0  0  0  0  0  0  0
    5.9418   -2.3659    0.0000 N   0  0  0  0  0  0  0  0  0  0  0  0
    0.2889   -1.5351    0.0000 O   0  0  0  0  0  0  0  0  0  0  0  0
    1.1206   -1.6132    0.0000 C   0  0  0  0  0  0  0  0  0  0  0  0
    1.3469   -0.1099    0.0000 C   0  0  0  0  0  0  0  0  0  0  0  0
  1  2  1  0  0  0  0
  2  9  2  0  0  0  0
  3  1  1  0  0  0  0
  3 22  1  0  0  0  0
  4  2  1  0  0  0  0
  4  5  2  0  0  0  0
  6  5  1  0  0  0  0
  6  7  1  0  0  0  0
  8  6  2  0  0  0  0
  9  8  1  0  0  0  0
 10 11  1  0  0  0  0
 10 19  1  0  0  0  0
 11 18  2  0  0  0  0
 12 13  1  0  0  0  0
 12 15  2  0  0  0  0
 13 17  2  0  0  0  0
 14 12  1  0  0  0  0
 15 16  1  0  0  0  0
 15 21  1  0  0  0  0
 17 11  1  0  0  0  0
 17 20  1  0  0  0  0
 19 22  1  0  0  0  0
 21 20  2  0  0  0  0
 22 23  2  0  0  0  0
 23 18  1  0  0  0  0
 24 25  2  0  0  0  0
 25 16  1  0  0  0  0
 25 14  1  0  0  0  0
 26 16  1  0  0  0  0
M  END
> <ID>
SCHEMBL21156824

> <InChIKey>
NBKIXWHFMASUTK-UHFFFAOYSA-N

> <MW>
369.42

> <Series_Name>
Series_2

$$$$
SCHEMBL21156825
  Mrv1719007191922482D 0   0.00000     0.00000     0

 26 29  0  0  0  0              1 V2000 
    8.0649   -3.5187    0.0000 C   0  0  0  0  0  0  0  0  0  0  0  0
    8.0705   -4.3476    0.0000 C   0  0  0  0  0  0  0  0  0  0  0  0
    7.3318   -3.1236    0.0000 C   0  0  0  0  0  0  0  0  0  0  0  0
    6.6647   -3.7398    0.0000 N   0  0  0  0  0  0  0  0  0  0  0  0
    8.7737   -3.1064    0.0000 C   0  0  0  0  0  0  0  0  0  0  0  0
    9.4774   -3.5095    0.0000 C   0  0  0  0  0  0  0  0  0  0  0  0
    9.4849   -4.3435    0.0000 C   0  0  0  0  0  0  0  0  0  0  0  0
   10.2143   -4.7450    0.0000 F   0  0  0  0  0  0  0  0  0  0  0  0
    8.7667   -4.7588    0.0000 C   0  0  0  0  0  0  0  0  0  0  0  0
    3.0935   -2.2715    0.0000 C   0  0  0  0  0  0  0  0  0  0  0  0
    3.7873   -1.8673    0.0000 C   0  0  0  0  0  0  0  0  0  0  0  0
    2.3817   -1.8611    0.0000 C   0  0  0  0  0  0  0  0  0  0  0  0
    1.6118   -2.1008    0.0000 N   0  0  0  0  0  0  0  0  0  0  0  0
    2.3797   -1.0358    0.0000 C   0  0  0  0  0  0  0  0  0  0  0  0
    1.6209   -0.5253    0.0000 N   0  0  0  0  0  0  0  0  0  0  0  0
    3.0917   -0.6196    0.0000 C   0  0  0  0  0  0  0  0  0  0  0  0
    3.7863   -1.0296    0.0000 C   0  0  0  0  0  0  0  0  0  0  0  0
    4.5264   -2.2789    0.0000 C   0  0  0  0  0  0  0  0  0  0  0  0
    5.2521   -1.8473    0.0000 N   0  0  0  0  0  0  0  0  0  0  0  0
    4.5301   -3.1012    0.0000 C   0  0  0  0  0  0  0  0  0  0  0  0
    5.2339   -3.5134    0.0000 S   0  0  0  0  0  0  0  0  0  0  0  0
    5.9267   -3.1047    0.0000 C   0  0  0  0  0  0  0  0  0  0  0  0
    5.9584   -2.2638    0.0000 N   0  0  0  0  0  0  0  0  0  0  0  0
    0.2898   -1.4307    0.0000 O   0  0  0  0  0  0  0  0  0  0  0  0
    1.1543   -1.5255    0.0000 C   0  0  0  0  0  0  0  0  0  0  0  0
    1.3402   -2.9240    0.0000 C   0  0  0  0  0  0  0  0  0  0  0  0
  1  2  2  0  0  0  0
  1  5  1  0  0  0  0
  2  9  1  0  0  0  0
  3  1  1  0  0  0  0
  4  3  1  0  0  0  0
  4 22  1  0  0  0  0
  5  6  2  0  0  0  0
  7  8  1  0  0  0  0
  7  6  1  0  0  0  0
  9  7  2  0  0  0  0
 10 11  2  0  0  0  0
 11 18  1  0  0  0  0
 12 13  1  0  0  0  0
 12 10  1  0  0  0  0
 13 26  1  0  0  0  0
 14 12  2  0  0  0  0
 14 16  1  0  0  0  0
 15 14  1  0  0  0  0
 16 17  2  0  0  0  0
 17 11  1  0  0  0  0
 18 19  2  0  0  0  0
 20 18  1  0  0  0  0
 20 21  1  0  0  0  0
 21 22  1  0  0  0  0
 22 23  2  0  0  0  0
 23 19  1  0  0  0  0
 24 25  2  0  0  0  0
 25 15  1  0  0  0  0
 25 13  1  0  0  0  0
M  END
> <ID>
SCHEMBL21156825

> <InChIKey>
SWKASWJTHKIXIL-UHFFFAOYSA-N

> <MW>
369.42

> <Series_Name>
Series_2

$$$$
SCHEMBL21156829
  Mrv1719007191922482D 0   0.00000     0.00000     0

 25 28  0  0  0  0              1 V2000 
    8.0285   -4.4863    0.0000 C   0  0  0  0  0  0  0  0  0  0  0  0
    8.0343   -3.6521    0.0000 C   0  0  0  0  0  0  0  0  0  0  0  0
    6.6473   -3.8851    0.0000 N   0  0  0  0  0  0  0  0  0  0  0  0
    7.3225   -3.2349    0.0000 C   0  0  0  0  0  0  0  0  0  0  0  0
    8.7487   -3.2372    0.0000 C   0  0  0  0  0  0  0  0  0  0  0  0
    9.4433   -3.6396    0.0000 C   0  0  0  0  0  0  0  0  0  0  0  0
    9.4433   -4.4922    0.0000 C   0  0  0  0  0  0  0  0  0  0  0  0
    8.7387   -4.9008    0.0000 C   0  0  0  0  0  0  0  0  0  0  0  0
    4.5062   -3.2375    0.0000 C   0  0  0  0  0  0  0  0  0  0  0  0
    4.5003   -2.4047    0.0000 C   0  0  0  0  0  0  0  0  0  0  0  0
    2.3651   -1.9912    0.0000 C   0  0  0  0  0  0  0  0  0  0  0  0
    3.0741   -2.3992    0.0000 C   0  0  0  0  0  0  0  0  0  0  0  0
    1.6120   -2.4723    0.0000 N   0  0  0  0  0  0  0  0  0  0  0  0
    2.3737   -1.1544    0.0000 C   0  0  0  0  0  0  0  0  0  0  0  0
    1.6120   -0.8874    0.0000 N   0  0  0  0  0  0  0  0  0  0  0  0
    3.7674   -1.9944    0.0000 C   0  0  0  0  0  0  0  0  0  0  0  0
    5.2345   -1.9743    0.0000 N   0  0  0  0  0  0  0  0  0  0  0  0
    5.2164   -3.6587    0.0000 S   0  0  0  0  0  0  0  0  0  0  0  0
    3.7652   -1.1557    0.0000 C   0  0  0  0  0  0  0  0  0  0  0  0
    3.0696   -0.7556    0.0000 C   0  0  0  0  0  0  0  0  0  0  0  0
    5.9156   -3.2446    0.0000 C   0  0  0  0  0  0  0  0  0  0  0  0
    5.9408   -2.3908    0.0000 N   0  0  0  0  0  0  0  0  0  0  0  0
    0.2898   -1.5758    0.0000 O   0  0  0  0  0  0  0  0  0  0  0  0
    1.1301   -1.5357    0.0000 C   0  0  0  0  0  0  0  0  0  0  0  0
    1.3241   -0.1215    0.0000 C   0  0  0  0  0  0  0  0  0  0  0  0
  1  2  2  0  0  0  0
  1  8  1  0  0  0  0
  2  4  1  0  0  0  0
  2  5  1  0  0  0  0
  3  4  1  0  0  0  0
  3 21  1  0  0  0  0
  5  6  2  0  0  0  0
  7  6  1  0  0  0  0
  8  7  2  0  0  0  0
  9 10  1  0  0  0  0
  9 18  1  0  0  0  0
 10 17  2  0  0  0  0
 11 12  1  0  0  0  0
 11 14  2  0  0  0  0
 12 16  2  0  0  0  0
 13 11  1  0  0  0  0
 14 15  1  0  0  0  0
 14 20  1  0  0  0  0
 16 10  1  0  0  0  0
 16 19  1  0  0  0  0
 18 21  1  0  0  0  0
 20 19  2  0  0  0  0
 21 22  2  0  0  0  0
 22 17  1  0  0  0  0
 23 24  2  0  0  0  0
 24 15  1  0  0  0  0
 24 13  1  0  0  0  0
 25 15  1  0  0  0  0
M  END
> <ID>
SCHEMBL21156829

> <InChIKey>
OSDSJFFEZWKQQT-UHFFFAOYSA-N

> <MW>
351.43

> <Series_Name>
Series_2

$$$$
SCHEMBL21156830
  Mrv1719007191922482D 0   0.00000     0.00000     0

 25 28  0  0  0  0              1 V2000 
    7.9592   -3.4972    0.0000 C   0  0  0  0  0  0  0  0  0  0  0  0
    7.9596   -4.3292    0.0000 C   0  0  0  0  0  0  0  0  0  0  0  0
    6.5848   -3.7320    0.0000 N   0  0  0  0  0  0  0  0  0  0  0  0
    7.2744   -3.1087    0.0000 C   0  0  0  0  0  0  0  0  0  0  0  0
    8.6605   -3.0923    0.0000 C   0  0  0  0  0  0  0  0  0  0  0  0
    8.6618   -4.7269    0.0000 C   0  0  0  0  0  0  0  0  0  0  0  0
    9.3457   -4.3274    0.0000 C   0  0  0  0  0  0  0  0  0  0  0  0
    9.3457   -3.4946    0.0000 C   0  0  0  0  0  0  0  0  0  0  0  0
    4.4638   -3.0995    0.0000 C   0  0  0  0  0  0  0  0  0  0  0  0
    4.4580   -2.2746    0.0000 C   0  0  0  0  0  0  0  0  0  0  0  0
    3.0514   -2.2761    0.0000 C   0  0  0  0  0  0  0  0  0  0  0  0
    3.7342   -1.8679    0.0000 C   0  0  0  0  0  0  0  0  0  0  0  0
    2.3380   -1.8618    0.0000 C   0  0  0  0  0  0  0  0  0  0  0  0
    1.5969   -2.0993    0.0000 N   0  0  0  0  0  0  0  0  0  0  0  0
    2.3522   -1.0350    0.0000 C   0  0  0  0  0  0  0  0  0  0  0  0
    1.5969   -0.5293    0.0000 N   0  0  0  0  0  0  0  0  0  0  0  0
    5.1853   -1.8481    0.0000 N   0  0  0  0  0  0  0  0  0  0  0  0
    5.1674   -3.4987    0.0000 S   0  0  0  0  0  0  0  0  0  0  0  0
    3.7297   -1.0368    0.0000 C   0  0  0  0  0  0  0  0  0  0  0  0
    3.0503   -0.6365    0.0000 C   0  0  0  0  0  0  0  0  0  0  0  0
    5.8569   -3.1027    0.0000 C   0  0  0  0  0  0  0  0  0  0  0  0
    5.8850   -2.2607    0.0000 N   0  0  0  0  0  0  0  0  0  0  0  0
    0.2871   -1.4533    0.0000 O   0  0  0  0  0  0  0  0  0  0  0  0
    1.1196   -1.4136    0.0000 C   0  0  0  0  0  0  0  0  0  0  0  0
    1.3203   -2.8852    0.0000 C   0  0  0  0  0  0  0  0  0  0  0  0
  1  2  2  0  0  0  0
  1  5  1  0  0  0  0
  2  6  1  0  0  0  0
  3  4  1  0  0  0  0
  3 21  1  0  0  0  0
  4  1  1  0  0  0  0
  5  8  2  0  0  0  0
  6  7  2  0  0  0  0
  7  8  1  0  0  0  0
  9 10  1  0  0  0  0
  9 18  1  0  0  0  0
 10 17  2  0  0  0  0
 11 12  2  0  0  0  0
 11 13  1  0  0  0  0
 12 10  1  0  0  0  0
 13 15  2  0  0  0  0
 14 13  1  0  0  0  0
 14 25  1  0  0  0  0
 15 16  1  0  0  0  0
 15 20  1  0  0  0  0
 18 21  1  0  0  0  0
 19 12  1  0  0  0  0
 20 19  2  0  0  0  0
 21 22  2  0  0  0  0
 22 17  1  0  0  0  0
 23 24  2  0  0  0  0
 24 16  1  0  0  0  0
 24 14  1  0  0  0  0
M  END
> <ID>
SCHEMBL21156830

> <InChIKey>
LMSHQEPJRDQCKU-UHFFFAOYSA-N

> <MW>
351.43

> <Series_Name>
Series_2

$$$$
SCHEMBL21162620
  Mrv1719007211904492D 0   0.00000     0.00000     0

 29 34  0  0  0  0              1 V2000 
    8.0122   -3.2247    0.0000 N   0  0  0  0  0  0  0  0  0  0  0  0
    8.2420   -4.0369    0.0000 C   0  0  0  0  0  0  0  0  0  0  0  0
    9.0334   -4.2517    0.0000 C   0  0  0  0  0  0  0  0  0  0  0  0
    9.5997   -3.6588    0.0000 O   0  0  0  0  0  0  0  0  0  0  0  0
    1.1410   -3.3984    0.0000 N   0  0  0  0  0  0  0  0  0  0  0  0
    2.1043   -3.3690    0.0000 C   0  0  0  0  0  0  0  0  0  0  0  0
    1.6212   -2.1112    0.0000 C   0  0  0  0  0  0  0  0  0  0  0  0
    2.3211   -2.5739    0.0000 C   0  0  0  0  0  0  0  0  0  0  0  0
    0.9937   -2.6555    0.0000 C   0  0  0  0  0  0  0  0  0  0  0  0
    0.2241   -2.3413    0.0000 C   0  0  0  0  0  0  0  0  0  0  0  0
    0.0962   -1.5209    0.0000 C   0  0  0  0  0  0  0  0  0  0  0  0
    0.7321   -1.0100    0.0000 C   0  0  0  0  0  0  0  0  0  0  0  0
    0.5829   -0.1736    0.0000 F   0  0  0  0  0  0  0  0  0  0  0  0
    3.1211   -2.3556    0.0000 C   0  0  0  0  0  0  0  0  0  0  0  0
    3.6960   -2.9270    0.0000 N   0  0  0  0  0  0  0  0  0  0  0  0
    2.6867   -3.9533    0.0000 C   0  0  0  0  0  0  0  0  0  0  0  0
    3.4792   -3.7384    0.0000 C   0  0  0  0  0  0  0  0  0  0  0  0
    1.4989   -1.3117    0.0000 C   0  0  0  0  0  0  0  0  0  0  0  0
    8.5934   -2.6537    0.0000 C   0  0  0  0  0  0  0  0  0  0  0  0
    9.4039   -2.8779    0.0000 C   0  0  0  0  0  0  0  0  0  0  0  0
    4.4981   -2.7277    0.0000 C   0  0  0  0  0  0  0  0  0  0  0  0
    5.0989   -3.3059    0.0000 C   0  0  0  0  0  0  0  0  0  0  0  0
    4.7297   -1.9270    0.0000 C   0  0  0  0  0  0  0  0  0  0  0  0
    5.5209   -1.7150    0.0000 C   0  0  0  0  0  0  0  0  0  0  0  0
    6.1003   -2.3060    0.0000 C   0  0  0  0  0  0  0  0  0  0  0  0
    6.9083   -2.2449    0.0000 O   0  0  0  0  0  0  0  0  0  0  0  0
    5.8916   -3.0891    0.0000 C   0  0  0  0  0  0  0  0  0  0  0  0
    6.5734   -3.5348    0.0000 N   0  0  0  0  0  0  0  0  0  0  0  0
    7.2252   -3.0238    0.0000 C   0  0  0  0  0  0  0  0  0  0  0  0
  1  2  1  0  0  0  0
  1 19  1  0  0  0  0
  2  3  1  0  0  0  0
  4  3  1  0  0  0  0
  5  6  1  0  0  0  0
  6  8  2  0  0  0  0
  7  8  1  0  0  0  0
  7  9  1  0  0  0  0
  8 14  1  0  0  0  0
  9  5  1  0  0  0  0
 10  9  2  0  0  0  0
 10 11  1  0  0  0  0
 11 12  2  0  0  0  0
 12 13  1  0  0  0  0
 12 18  1  0  0  0  0
 14 15  1  0  0  0  0
 15 21  1  0  0  0  0
 16 17  1  0  0  0  0
 16  6  1  0  0  0  0
 17 15  1  0  0  0  0
 18  7  2  0  0  0  0
 19 20  1  0  0  0  0
 20  4  1  0  0  0  0
 21 22  2  0  0  0  0
 21 23  1  0  0  0  0
 22 27  1  0  0  0  0
 23 24  2  0  0  0  0
 24 25  1  0  0  0  0
 25 26  1  0  0  0  0
 27 25  2  0  0  0  0
 27 28  1  0  0  0  0
 28 29  2  0  0  0  0
 29 26  1  0  0  0  0
 29  1  1  0  0  0  0
M  END
> <ID>
SCHEMBL21162620

> <InChIKey>
WSLPCARHAGCVSY-UHFFFAOYSA-N

> <MW>
392.434

> <Series_Name>
Series_6

$$$$
SCHEMBL21164431
  Mrv1719007211921432D 0   0.00000     0.00000     0

 32 35  0  0  1  0              1 V2000 
    2.2299   -3.1159    0.0000 O   0  0  0  0  0  0  0  0  0  0  0  0
    2.9687   -2.7144    0.0000 C   0  0  0  0  0  0  0  0  0  0  0  0
    2.9802   -1.8747    0.0000 C   0  0  0  0  0  0  0  0  0  0  0  0
    3.6885   -1.4636    0.0000 C   0  0  0  0  0  0  0  0  0  0  0  0
    4.4107   -1.8796    0.0000 C   0  0  0  0  0  0  0  0  0  0  0  0
    4.3883   -2.7167    0.0000 C   0  0  0  0  0  0  0  0  0  0  0  0
    5.8479   -2.6876    0.0000 N   0  0  0  0  0  0  0  0  0  0  0  0
    5.1253   -3.1286    0.0000 C   0  0  0  0  0  0  0  0  0  0  0  0
    3.6848   -3.1222    0.0000 C   0  0  0  0  0  0  0  0  0  0  0  0
    6.5621   -3.1270    0.0000 C   0  0  0  0  0  0  0  0  0  0  0  0
    7.2774   -2.7083    0.0000 C   0  0  2  0  0  0  0  0  0  0  0  0
    0.8122   -3.1159    0.0000 N   0  0  0  0  0  0  0  0  0  0  0  0
    1.5260   -2.7010    0.0000 C   0  0  0  0  0  0  0  0  0  0  0  0
    1.5210   -1.8607    0.0000 N   0  0  0  0  0  0  0  0  0  0  0  0
    0.1456   -2.6863    0.0000 C   0  0  0  0  0  0  0  0  0  0  0  0
    0.1006   -1.8756    0.0000 C   0  0  0  0  0  0  0  0  0  0  0  0
    0.8094   -1.4657    0.0000 C   0  0  0  0  0  0  0  0  0  0  0  0
    5.8573   -1.8706    0.0000 C   0  0  0  0  0  0  0  0  0  0  0  0
    6.5648   -1.4707    0.0000 C   0  0  0  0  0  0  0  0  0  0  0  0
    7.2803   -1.8607    0.0000 N   0  0  0  0  0  0  0  0  0  0  0  0
    9.4474   -1.4669    0.0000 C   0  0  0  0  0  0  0  0  0  0  0  0
    8.7127   -1.8607    0.0000 O   0  0  0  0  0  0  0  0  0  0  0  0
    9.4472   -0.6374    0.0000 C   0  0  0  0  0  0  0  0  0  0  0  0
   10.1599   -0.2068    0.0000 N   0  0  0  0  0  0  0  0  0  0  0  0
   10.1625   -1.8771    0.0000 C   0  0  0  0  0  0  0  0  0  0  0  0
   10.8743   -1.4657    0.0000 C   0  0  0  0  0  0  0  0  0  0  0  0
   10.8943   -0.6391    0.0000 C   0  0  0  0  0  0  0  0  0  0  0  0
   11.3696   -1.6936    0.0000 C   0  0  0  0  0  0  0  0  0  0  0  0
   11.8649   -1.9215    0.0000 N   0  0  0  0  0  0  0  0  0  0  0  0
    7.9892   -0.6203    0.0000 O   0  0  0  0  0  0  0  0  0  0  0  0
    8.0309   -1.4850    0.0000 C   0  0  0  0  0  0  0  0  0  0  0  0
    8.0830   -3.1660    0.0000 C   0  0  0  0  0  0  0  0  0  0  0  0
  1  2  1  0  0  0  0
  2  3  1  0  0  0  0
  2  9  2  0  0  0  0
  3  4  2  0  0  0  0
  4  5  1  0  0  0  0
  6  5  2  0  0  0  0
  7  8  1  0  0  0  0
  7 10  1  0  0  0  0
  7 18  1  0  0  0  0
  8  6  1  0  0  0  0
  9  6  1  0  0  0  0
 11 10  1  0  0  0  0
 11 20  1  0  0  0  0
 11 32  1  6  0  0  0
 12 13  1  0  0  0  0
 13  1  1  0  0  0  0
 14 13  2  0  0  0  0
 15 16  1  0  0  0  0
 15 12  2  0  0  0  0
 16 17  2  0  0  0  0
 17 14  1  0  0  0  0
 18 19  1  0  0  0  0
 19 20  1  0  0  0  0
 21 22  1  0  0  0  0
 21 25  1  0  0  0  0
 23 24  1  0  0  0  0
 23 21  2  0  0  0  0
 24 27  2  0  0  0  0
 25 26  2  0  0  0  0
 26 28  1  0  0  0  0
 27 26  1  0  0  0  0
 28 29  3  0  0  0  0
 30 31  2  0  0  0  0
 31 22  1  0  0  0  0
 31 20  1  0  0  0  0
M  END
> <ID>
SCHEMBL21164431

> <InChIKey>
SVGFOPATXLHTCS-QGZVFWFLSA-N

> <MW>
430.468

> <Series_Name>
Series_10

$$$$
SCHEMBL21164433
  Mrv1719007211921442D 0   0.00000     0.00000     0

 31 33  0  0  1  0              1 V2000 
    0.7350   -4.1091    0.0000 C   0  0  0  0  0  0  0  0  0  0  0  0
    0.4172   -4.5519    0.0000 F   0  0  0  0  0  0  0  0  0  0  0  0
    0.9596   -4.6058    0.0000 F   0  0  0  0  0  0  0  0  0  0  0  0
    0.2923   -3.7912    0.0000 F   0  0  0  0  0  0  0  0  0  0  0  0
    1.2317   -3.8845    0.0000 C   0  0  0  0  0  0  0  0  0  0  0  0
    1.9301   -1.8187    0.0000 F   0  0  0  0  0  0  0  0  0  0  0  0
    1.9446   -2.6571    0.0000 C   0  0  0  0  0  0  0  0  0  0  0  0
    2.6626   -3.0699    0.0000 C   0  0  0  0  0  0  0  0  0  0  0  0
    2.6632   -3.8941    0.0000 C   0  0  0  0  0  0  0  0  0  0  0  0
    3.3746   -4.3028    0.0000 C   0  0  0  0  0  0  0  0  0  0  0  0
    4.0828   -3.8725    0.0000 N   0  0  0  0  0  0  0  0  0  0  0  0
    1.9437   -4.3045    0.0000 C   0  0  0  0  0  0  0  0  0  0  0  0
    1.2388   -3.0669    0.0000 C   0  0  0  0  0  0  0  0  0  0  0  0
    4.8020   -4.3039    0.0000 C   0  0  0  0  0  0  0  0  0  0  0  0
    5.5190   -3.8852    0.0000 C   0  0  2  0  0  0  0  0  0  0  0  0
    4.8032   -2.6557    0.0000 C   0  0  0  0  0  0  0  0  0  0  0  0
    5.5180   -3.0560    0.0000 N   0  0  0  0  0  0  0  0  0  0  0  0
    4.0960   -3.0653    0.0000 C   0  0  0  0  0  0  0  0  0  0  0  0
    6.9285   -3.0560    0.0000 O   0  0  0  0  0  0  0  0  0  0  0  0
    7.6615   -2.6571    0.0000 C   0  0  0  0  0  0  0  0  0  0  0  0
    7.6461   -0.1732    0.0000 O   0  0  0  0  0  0  0  0  0  0  0  0
    8.3840   -0.5949    0.0000 C   0  0  0  0  0  0  0  0  0  0  0  0
    9.2050   -0.1732    0.0000 N   0  0  0  0  0  0  0  0  0  0  0  0
    8.3790   -1.4199    0.0000 C   0  0  0  0  0  0  0  0  0  0  0  0
    9.0813   -2.6353    0.0000 N   0  0  0  0  0  0  0  0  0  0  0  0
    9.0983   -1.8356    0.0000 C   0  0  0  0  0  0  0  0  0  0  0  0
    7.6724   -1.8283    0.0000 C   0  0  0  0  0  0  0  0  0  0  0  0
    8.3698   -3.0653    0.0000 C   0  0  0  0  0  0  0  0  0  0  0  0
    6.2233   -1.8187    0.0000 O   0  0  0  0  0  0  0  0  0  0  0  0
    6.2542   -2.6753    0.0000 C   0  0  0  0  0  0  0  0  0  0  0  0
    6.2914   -4.3333    0.0000 C   0  0  0  0  0  0  0  0  0  0  0  0
  1  2  1  0  0  0  0
  1  3  1  0  0  0  0
  1  4  1  0  0  0  0
  1  5  1  0  0  0  0
  5 13  2  0  0  0  0
  6  7  1  0  0  0  0
  7  8  2  0  0  0  0
  8  9  1  0  0  0  0
  9 10  1  0  0  0  0
 10 11  1  0  0  0  0
 12  9  2  0  0  0  0
 12  5  1  0  0  0  0
 13  7  1  0  0  0  0
 15 14  1  0  0  0  0
 14 11  1  0  0  0  0
 15 31  1  6  0  0  0
 15 17  1  0  0  0  0
 16 17  1  0  0  0  0
 16 18  1  0  0  0  0
 18 11  1  0  0  0  0
 19 20  1  0  0  0  0
 20 28  2  0  0  0  0
 21 22  2  0  0  0  0
 22 23  1  0  0  0  0
 24 22  1  0  0  0  0
 24 26  1  0  0  0  0
 25 26  2  0  0  0  0
 27 24  2  0  0  0  0
 27 20  1  0  0  0  0
 28 25  1  0  0  0  0
 29 30  2  0  0  0  0
 30 19  1  0  0  0  0
 30 17  1  0  0  0  0
M  END
> <ID>
SCHEMBL21164433

> <InChIKey>
BZVJEVFIYBZFNY-GFCCVEGCSA-N

> <MW>
440.399

> <Series_Name>
Series_10

$$$$
SCHEMBL21164441
  Mrv1719007211921472D 0   0.00000     0.00000     0

 31 33  0  0  1  0              1 V2000 
    1.2287   -2.6707    0.0000 C   0  0  0  0  0  0  0  0  0  0  0  0
    1.9539   -3.0716    0.0000 C   0  0  0  0  0  0  0  0  0  0  0  0
    0.7318   -2.8908    0.0000 C   0  0  0  0  0  0  0  0  0  0  0  0
    0.4115   -3.3300    0.0000 F   0  0  0  0  0  0  0  0  0  0  0  0
    0.9520   -3.3878    0.0000 F   0  0  0  0  0  0  0  0  0  0  0  0
    0.2926   -2.5706    0.0000 F   0  0  0  0  0  0  0  0  0  0  0  0
    1.9418   -1.4309    0.0000 C   0  0  0  0  0  0  0  0  0  0  0  0
    2.6659   -1.8444    0.0000 C   0  0  0  0  0  0  0  0  0  0  0  0
    2.6635   -2.6655    0.0000 C   0  0  0  0  0  0  0  0  0  0  0  0
    4.0846   -2.6489    0.0000 N   0  0  0  0  0  0  0  0  0  0  0  0
    3.3762   -3.0810    0.0000 C   0  0  0  0  0  0  0  0  0  0  0  0
    1.9492   -3.8928    0.0000 C   0  0  0  0  0  0  0  0  0  0  0  0
    1.2394   -1.8413    0.0000 C   0  0  0  0  0  0  0  0  0  0  0  0
    4.7985   -3.0752    0.0000 C   0  0  0  0  0  0  0  0  0  0  0  0
    5.4793   -2.6938    0.0000 C   0  0  2  0  0  0  0  0  0  0  0  0
    9.0883   -1.4317    0.0000 C   0  0  0  0  0  0  0  0  0  0  0  0
    9.8139   -1.8608    0.0000 C   0  0  0  0  0  0  0  0  0  0  0  0
    7.6592   -1.4299    0.0000 C   0  0  0  0  0  0  0  0  0  0  0  0
    8.3700   -1.8422    0.0000 C   0  0  0  0  0  0  0  0  0  0  0  0
    6.9316   -1.8319    0.0000 O   0  0  0  0  0  0  0  0  0  0  0  0
    7.6698   -0.5950    0.0000 C   0  0  0  0  0  0  0  0  0  0  0  0
    8.3674   -0.1733    0.0000 N   0  0  0  0  0  0  0  0  0  0  0  0
    9.0900   -0.6029    0.0000 C   0  0  0  0  0  0  0  0  0  0  0  0
   10.5088   -1.4235    0.0000 O   0  0  0  0  0  0  0  0  0  0  0  0
    9.9270   -2.6612    0.0000 N   0  0  0  0  0  0  0  0  0  0  0  0
    4.8003   -1.4306    0.0000 C   0  0  0  0  0  0  0  0  0  0  0  0
    5.5081   -1.8319    0.0000 N   0  0  0  0  0  0  0  0  0  0  0  0
    4.0986   -1.8410    0.0000 C   0  0  0  0  0  0  0  0  0  0  0  0
    6.1821   -1.4512    0.0000 C   0  0  0  0  0  0  0  0  0  0  0  0
    6.2137   -0.5942    0.0000 O   0  0  0  0  0  0  0  0  0  0  0  0
    6.2886   -3.1084    0.0000 C   0  0  0  0  0  0  0  0  0  0  0  0
  1  2  2  0  0  0  0
  1 13  1  0  0  0  0
  2 12  1  0  0  0  0
  2  9  1  0  0  0  0
  3  4  1  0  0  0  0
  3  5  1  0  0  0  0
  3  6  1  0  0  0  0
  3  1  1  0  0  0  0
  7  8  1  0  0  0  0
  9  8  2  0  0  0  0
 10 11  1  0  0  0  0
 10 14  1  0  0  0  0
 11  9  1  0  0  0  0
 13  7  2  0  0  0  0
 15 14  1  0  0  0  0
 15 31  1  6  0  0  0
 15 27  1  0  0  0  0
 16 17  1  0  0  0  0
 16 23  2  0  0  0  0
 17 24  2  0  0  0  0
 18 19  2  0  0  0  0
 18 21  1  0  0  0  0
 19 16  1  0  0  0  0
 20 18  1  0  0  0  0
 20 29  1  0  0  0  0
 21 22  2  0  0  0  0
 23 22  1  0  0  0  0
 25 17  1  0  0  0  0
 26 27  1  0  0  0  0
 26 28  1  0  0  0  0
 27 29  1  0  0  0  0
 28 10  1  0  0  0  0
 29 30  2  0  0  0  0
M  END
> <ID>
SCHEMBL21164441

> <InChIKey>
ZVQVJIBFBAPJLI-CYBMUJFWSA-N

> <MW>
436.435

> <Series_Name>
Series_10

$$$$
SCHEMBL21164448
  Mrv1719007211921492D 0   0.00000     0.00000     0

 30 32  0  0  1  0              1 V2000 
    1.3656   -3.0512    0.0000 C   0  0  0  0  0  0  0  0  0  0  0  0
    0.3782   -2.6537    0.0000 N   0  0  0  0  0  0  0  0  0  0  0  0
    1.1836   -1.4287    0.0000 Cl  0  0  0  0  0  0  0  0  0  0  0  0
    2.0139   -1.8403    0.0000 C   0  0  0  0  0  0  0  0  0  0  0  0
    3.4527   -1.8485    0.0000 C   0  0  0  0  0  0  0  0  0  0  0  0
    3.4527   -2.6706    0.0000 C   0  0  0  0  0  0  0  0  0  0  0  0
    4.1647   -3.0836    0.0000 C   0  0  0  0  0  0  0  0  0  0  0  0
    4.8733   -2.6537    0.0000 N   0  0  0  0  0  0  0  0  0  0  0  0
    2.0180   -2.6697    0.0000 C   0  0  0  0  0  0  0  0  0  0  0  0
    2.7286   -3.0801    0.0000 C   0  0  0  0  0  0  0  0  0  0  0  0
    1.2896   -3.8937    0.0000 O   0  0  0  0  0  0  0  0  0  0  0  0
    2.7285   -1.4360    0.0000 C   0  0  0  0  0  0  0  0  0  0  0  0
    5.5909   -3.0847    0.0000 C   0  0  0  0  0  0  0  0  0  0  0  0
    6.3038   -2.6694    0.0000 C   0  0  1  0  0  0  0  0  0  0  0  0
    6.2993   -1.8228    0.0000 N   0  0  0  0  0  0  0  0  0  0  0  0
    6.9693   -3.0487    0.0000 C   0  0  0  0  0  0  0  0  0  0  0  0
    5.5966   -1.4293    0.0000 C   0  0  0  0  0  0  0  0  0  0  0  0
    4.8810   -1.8399    0.0000 C   0  0  0  0  0  0  0  0  0  0  0  0
    9.8903   -1.4300    0.0000 C   0  0  0  0  0  0  0  0  0  0  0  0
   10.5942   -1.8410    0.0000 C   0  0  0  0  0  0  0  0  0  0  0  0
    7.7254   -1.8352    0.0000 O   0  0  0  0  0  0  0  0  0  0  0  0
    8.4651   -1.4289    0.0000 C   0  0  0  0  0  0  0  0  0  0  0  0
    8.4655   -0.5958    0.0000 C   0  0  0  0  0  0  0  0  0  0  0  0
    9.1638   -0.1736    0.0000 N   0  0  0  0  0  0  0  0  0  0  0  0
    9.1731   -1.8398    0.0000 C   0  0  0  0  0  0  0  0  0  0  0  0
    9.8871   -0.5973    0.0000 C   0  0  0  0  0  0  0  0  0  0  0  0
   11.3090   -1.4136    0.0000 O   0  0  0  0  0  0  0  0  0  0  0  0
   10.7262   -2.6537    0.0000 N   0  0  0  0  0  0  0  0  0  0  0  0
    7.0185   -0.5952    0.0000 O   0  0  0  0  0  0  0  0  0  0  0  0
    7.0623   -1.4426    0.0000 C   0  0  0  0  0  0  0  0  0  0  0  0
  1  2  1  0  0  0  0
  1  9  1  0  0  0  0
  3  4  1  0  0  0  0
  4 12  2  0  0  0  0
  5  6  2  0  0  0  0
  6  7  1  0  0  0  0
  7  8  1  0  0  0  0
  8 18  1  0  0  0  0
  9 10  2  0  0  0  0
  9  4  1  0  0  0  0
 10  6  1  0  0  0  0
 11  1  2  0  0  0  0
 12  5  1  0  0  0  0
 14 13  1  0  0  0  0
 13  8  1  0  0  0  0
 14 16  1  1  0  0  0
 14 15  1  0  0  0  0
 17 15  1  0  0  0  0
 17 18  1  0  0  0  0
 19 20  1  0  0  0  0
 19 25  1  0  0  0  0
 20 27  2  0  0  0  0
 21 22  1  0  0  0  0
 21 30  1  0  0  0  0
 22 25  2  0  0  0  0
 23 24  2  0  0  0  0
 23 22  1  0  0  0  0
 24 26  1  0  0  0  0
 26 19  2  0  0  0  0
 28 20  1  0  0  0  0
 29 30  2  0  0  0  0
 30 15  1  0  0  0  0
M  END
> <ID>
SCHEMBL21164448

> <InChIKey>
YRKZSCHDHDNESF-LBPRGKRZSA-N

> <MW>
431.88

> <Series_Name>
Series_10

$$$$
SCHEMBL21164450
  Mrv1719007211921492D 0   0.00000     0.00000     0

 29 31  0  0  1  0              1 V2000 
    0.7291   -2.8923    0.0000 C   0  0  0  0  0  0  0  0  0  0  0  0
    0.4079   -3.3347    0.0000 F   0  0  0  0  0  0  0  0  0  0  0  0
    0.9515   -3.3917    0.0000 F   0  0  0  0  0  0  0  0  0  0  0  0
    0.2868   -2.5711    0.0000 F   0  0  0  0  0  0  0  0  0  0  0  0
    1.2284   -2.6699    0.0000 C   0  0  0  0  0  0  0  0  0  0  0  0
    1.2295   -1.8368    0.0000 C   0  0  0  0  0  0  0  0  0  0  0  0
    1.9442   -1.4254    0.0000 C   0  0  0  0  0  0  0  0  0  0  0  0
    2.6669   -1.8424    0.0000 C   0  0  0  0  0  0  0  0  0  0  0  0
    2.6664   -2.6674    0.0000 C   0  0  0  0  0  0  0  0  0  0  0  0
    3.3740   -3.0794    0.0000 C   0  0  0  0  0  0  0  0  0  0  0  0
    4.0864   -2.6499    0.0000 N   0  0  0  0  0  0  0  0  0  0  0  0
    1.9460   -3.0725    0.0000 C   0  0  0  0  0  0  0  0  0  0  0  0
    1.9499   -3.8944    0.0000 C   0  0  0  0  0  0  0  0  0  0  0  0
    4.8031   -3.0807    0.0000 C   0  0  0  0  0  0  0  0  0  0  0  0
    5.5235   -2.6622    0.0000 C   0  0  2  0  0  0  0  0  0  0  0  0
    5.5104   -1.8326    0.0000 N   0  0  0  0  0  0  0  0  0  0  0  0
    4.0897   -1.8365    0.0000 C   0  0  0  0  0  0  0  0  0  0  0  0
    4.8046   -1.4256    0.0000 C   0  0  0  0  0  0  0  0  0  0  0  0
    6.9344   -1.8326    0.0000 O   0  0  0  0  0  0  0  0  0  0  0  0
    7.6650   -1.4307    0.0000 C   0  0  0  0  0  0  0  0  0  0  0  0
    7.6727   -0.5937    0.0000 C   0  0  0  0  0  0  0  0  0  0  0  0
    8.3708   -0.1733    0.0000 N   0  0  0  0  0  0  0  0  0  0  0  0
    9.0912   -1.4317    0.0000 C   0  0  0  0  0  0  0  0  0  0  0  0
    9.0898   -0.6045    0.0000 C   0  0  0  0  0  0  0  0  0  0  0  0
    9.7948   -1.8326    0.0000 F   0  0  0  0  0  0  0  0  0  0  0  0
    8.3721   -1.8415    0.0000 C   0  0  0  0  0  0  0  0  0  0  0  0
    6.2384   -1.4289    0.0000 C   0  0  0  0  0  0  0  0  0  0  0  0
    6.2162   -0.5944    0.0000 O   0  0  0  0  0  0  0  0  0  0  0  0
    6.2954   -3.1035    0.0000 C   0  0  0  0  0  0  0  0  0  0  0  0
  1  2  1  0  0  0  0
  1  3  1  0  0  0  0
  1  4  1  0  0  0  0
  1  5  1  0  0  0  0
  5 12  2  0  0  0  0
  6  5  1  0  0  0  0
  6  7  2  0  0  0  0
  8  7  1  0  0  0  0
  9  8  2  0  0  0  0
 10 11  1  0  0  0  0
 10  9  1  0  0  0  0
 11 17  1  0  0  0  0
 12 13  1  0  0  0  0
 12  9  1  0  0  0  0
 15 14  1  0  0  0  0
 14 11  1  0  0  0  0
 15 29  1  6  0  0  0
 15 16  1  0  0  0  0
 17 18  1  0  0  0  0
 18 16  1  0  0  0  0
 19 20  1  0  0  0  0
 20 21  2  0  0  0  0
 20 26  1  0  0  0  0
 21 22  1  0  0  0  0
 22 24  2  0  0  0  0
 23 24  1  0  0  0  0
 23 25  1  0  0  0  0
 26 23  2  0  0  0  0
 27 16  1  0  0  0  0
 27 19  1  0  0  0  0
 28 27  2  0  0  0  0
M  END
> <ID>
SCHEMBL21164450

> <InChIKey>
DSAUXAKQSIMJCH-CYBMUJFWSA-N

> <MW>
411.401

> <Series_Name>
Series_10

$$$$
SCHEMBL21164451
  Mrv1719007211921492D 0   0.00000     0.00000     0

 31 33  0  0  1  0              1 V2000 
    0.9810   -4.1074    0.0000 O   0  0  0  0  0  0  0  0  0  0  0  0
    0.5568   -3.7643    0.0000 C   0  0  0  0  0  0  0  0  0  0  0  0
    0.0178   -3.6793    0.0000 F   0  0  0  0  0  0  0  0  0  0  0  0
    0.2137   -4.1885    0.0000 F   0  0  0  0  0  0  0  0  0  0  0  0
    0.6418   -3.2253    0.0000 F   0  0  0  0  0  0  0  0  0  0  0  0
    1.4903   -3.9115    0.0000 C   0  0  0  0  0  0  0  0  0  0  0  0
    3.6425   -4.3214    0.0000 C   0  0  0  0  0  0  0  0  0  0  0  0
    4.3600   -3.9004    0.0000 N   0  0  0  0  0  0  0  0  0  0  0  0
    2.9288   -3.9103    0.0000 C   0  0  0  0  0  0  0  0  0  0  0  0
    2.2099   -4.3276    0.0000 C   0  0  0  0  0  0  0  0  0  0  0  0
    2.8913   -3.1216    0.0000 C   0  0  0  0  0  0  0  0  0  0  0  0
    1.5046   -3.0801    0.0000 C   0  0  0  0  0  0  0  0  0  0  0  0
    5.0778   -4.3266    0.0000 C   0  0  0  0  0  0  0  0  0  0  0  0
    5.7890   -3.9085    0.0000 C   0  0  2  0  0  0  0  0  0  0  0  0
    5.0780   -2.6694    0.0000 C   0  0  0  0  0  0  0  0  0  0  0  0
    5.7885   -3.0682    0.0000 N   0  0  0  0  0  0  0  0  0  0  0  0
    4.3732   -3.0776    0.0000 C   0  0  0  0  0  0  0  0  0  0  0  0
    7.2170   -3.0682    0.0000 O   0  0  0  0  0  0  0  0  0  0  0  0
    7.9621   -2.6750    0.0000 C   0  0  0  0  0  0  0  0  0  0  0  0
    7.9375   -0.1739    0.0000 O   0  0  0  0  0  0  0  0  0  0  0  0
    8.6624   -0.6238    0.0000 C   0  0  0  0  0  0  0  0  0  0  0  0
    9.5027   -0.1739    0.0000 N   0  0  0  0  0  0  0  0  0  0  0  0
    8.6352   -1.4457    0.0000 C   0  0  0  0  0  0  0  0  0  0  0  0
    9.3784   -2.6583    0.0000 N   0  0  0  0  0  0  0  0  0  0  0  0
    9.3831   -1.8429    0.0000 C   0  0  0  0  0  0  0  0  0  0  0  0
    7.9640   -1.8356    0.0000 C   0  0  0  0  0  0  0  0  0  0  0  0
    8.6630   -3.0806    0.0000 C   0  0  0  0  0  0  0  0  0  0  0  0
    6.4966   -1.8260    0.0000 O   0  0  0  0  0  0  0  0  0  0  0  0
    6.5414   -2.6825    0.0000 C   0  0  0  0  0  0  0  0  0  0  0  0
    2.1683   -2.7185    0.0000 C   0  0  0  0  0  0  0  0  0  0  0  0
    6.5725   -4.3515    0.0000 C   0  0  0  0  0  0  0  0  0  0  0  0
  1  2  1  0  0  0  0
  1  6  1  0  0  0  0
  2  3  1  0  0  0  0
  2  4  1  0  0  0  0
  2  5  1  0  0  0  0
  6 12  2  0  0  0  0
  7  8  1  0  0  0  0
  9  7  1  0  0  0  0
 10  9  2  0  0  0  0
 10  6  1  0  0  0  0
 11  9  1  0  0  0  0
 12 30  1  0  0  0  0
 14 13  1  0  0  0  0
 13  8  1  0  0  0  0
 14 31  1  6  0  0  0
 14 16  1  0  0  0  0
 15 16  1  0  0  0  0
 15 17  1  0  0  0  0
 17  8  1  0  0  0  0
 18 19  1  0  0  0  0
 19 27  2  0  0  0  0
 20 21  2  0  0  0  0
 21 22  1  0  0  0  0
 23 21  1  0  0  0  0
 23 25  1  0  0  0  0
 24 25  2  0  0  0  0
 26 23  2  0  0  0  0
 26 19  1  0  0  0  0
 27 24  1  0  0  0  0
 28 29  2  0  0  0  0
 29 18  1  0  0  0  0
 29 16  1  0  0  0  0
 30 11  2  0  0  0  0
M  END
> <ID>
SCHEMBL21164451

> <InChIKey>
XXDVCULQMDDOAX-CYBMUJFWSA-N

> <MW>
438.407

> <Series_Name>
Series_10

$$$$
SCHEMBL21164452
  Mrv1719007211921492D 0   0.00000     0.00000     0

 30 32  0  0  1  0              1 V2000 
    0.9829   -3.6967    0.0000 O   0  0  0  0  0  0  0  0  0  0  0  0
    0.5578   -3.3545    0.0000 C   0  0  0  0  0  0  0  0  0  0  0  0
    0.0186   -3.2708    0.0000 F   0  0  0  0  0  0  0  0  0  0  0  0
    0.2157   -3.7797    0.0000 F   0  0  0  0  0  0  0  0  0  0  0  0
    0.6416   -2.8154    0.0000 F   0  0  0  0  0  0  0  0  0  0  0  0
    1.4917   -3.4996    0.0000 C   0  0  0  0  0  0  0  0  0  0  0  0
    1.4947   -2.6632    0.0000 C   0  0  0  0  0  0  0  0  0  0  0  0
    2.2099   -2.2521    0.0000 C   0  0  0  0  0  0  0  0  0  0  0  0
    2.9207   -2.6699    0.0000 C   0  0  0  0  0  0  0  0  0  0  0  0
    2.9232   -3.4978    0.0000 C   0  0  0  0  0  0  0  0  0  0  0  0
    3.6392   -3.9074    0.0000 C   0  0  0  0  0  0  0  0  0  0  0  0
    4.3614   -3.4792    0.0000 N   0  0  0  0  0  0  0  0  0  0  0  0
    2.2094   -3.9071    0.0000 C   0  0  0  0  0  0  0  0  0  0  0  0
    5.0755   -3.9083    0.0000 C   0  0  0  0  0  0  0  0  0  0  0  0
    5.7957   -3.4950    0.0000 C   0  0  2  0  0  0  0  0  0  0  0  0
    4.3648   -2.6630    0.0000 C   0  0  0  0  0  0  0  0  0  0  0  0
    5.0791   -2.2525    0.0000 C   0  0  0  0  0  0  0  0  0  0  0  0
    5.7904   -2.6591    0.0000 N   0  0  0  0  0  0  0  0  0  0  0  0
    7.2194   -2.6591    0.0000 O   0  0  0  0  0  0  0  0  0  0  0  0
    7.9496   -2.2550    0.0000 C   0  0  0  0  0  0  0  0  0  0  0  0
    7.9603   -1.4159    0.0000 C   0  0  0  0  0  0  0  0  0  0  0  0
    8.6629   -1.0146    0.0000 C   0  0  0  0  0  0  0  0  0  0  0  0
    8.7374   -0.4741    0.0000 C   0  0  0  0  0  0  0  0  0  0  0  0
    8.8120    0.0664    0.0000 N   0  0  0  0  0  0  0  0  0  0  0  0
    9.3860   -1.4249    0.0000 C   0  0  0  0  0  0  0  0  0  0  0  0
    9.3815   -2.2366    0.0000 N   0  0  0  0  0  0  0  0  0  0  0  0
    8.6640   -2.6676    0.0000 C   0  0  0  0  0  0  0  0  0  0  0  0
    6.4618   -2.2687    0.0000 C   0  0  0  0  0  0  0  0  0  0  0  0
    6.4987   -1.4165    0.0000 O   0  0  0  0  0  0  0  0  0  0  0  0
    6.5720   -3.9400    0.0000 C   0  0  0  0  0  0  0  0  0  0  0  0
  1  2  1  0  0  0  0
  1  6  1  0  0  0  0
  2  3  1  0  0  0  0
  2  4  1  0  0  0  0
  2  5  1  0  0  0  0
  6  7  2  0  0  0  0
  6 13  1  0  0  0  0
  7  8  1  0  0  0  0
  8  9  2  0  0  0  0
 10 11  1  0  0  0  0
 10  9  1  0  0  0  0
 11 12  1  0  0  0  0
 12 14  1  0  0  0  0
 12 16  1  0  0  0  0
 13 10  2  0  0  0  0
 15 14  1  0  0  0  0
 15 30  1  6  0  0  0
 15 18  1  0  0  0  0
 16 17  1  0  0  0  0
 17 18  1  0  0  0  0
 18 28  1  0  0  0  0
 19 20  1  0  0  0  0
 19 28  1  0  0  0  0
 20 27  2  0  0  0  0
 21 20  1  0  0  0  0
 21 22  2  0  0  0  0
 22 23  1  0  0  0  0
 23 24  3  0  0  0  0
 25 22  1  0  0  0  0
 26 25  2  0  0  0  0
 27 26  1  0  0  0  0
 28 29  2  0  0  0  0
M  END
> <ID>
SCHEMBL21164452

> <InChIKey>
WGOFKSCABXWBGU-CQSZACIVSA-N

> <MW>
420.392

> <Series_Name>
Series_10

$$$$
SCHEMBL21164453
  Mrv1719007211921492D 0   0.00000     0.00000     0

 29 31  0  0  1  0              1 V2000 
    0.9804   -3.6896    0.0000 O   0  0  0  0  0  0  0  0  0  0  0  0
    0.5552   -3.3476    0.0000 C   0  0  0  0  0  0  0  0  0  0  0  0
    0.0160   -3.2640    0.0000 F   0  0  0  0  0  0  0  0  0  0  0  0
    0.2132   -3.7728    0.0000 F   0  0  0  0  0  0  0  0  0  0  0  0
    0.6388   -2.8084    0.0000 F   0  0  0  0  0  0  0  0  0  0  0  0
    1.4892   -3.4924    0.0000 C   0  0  0  0  0  0  0  0  0  0  0  0
    1.4924   -2.6574    0.0000 C   0  0  0  0  0  0  0  0  0  0  0  0
    2.2060   -2.2484    0.0000 C   0  0  0  0  0  0  0  0  0  0  0  0
    3.6364   -3.9035    0.0000 C   0  0  0  0  0  0  0  0  0  0  0  0
    4.3531   -3.4725    0.0000 N   0  0  0  0  0  0  0  0  0  0  0  0
    2.9170   -3.4888    0.0000 C   0  0  0  0  0  0  0  0  0  0  0  0
    2.2089   -3.9000    0.0000 C   0  0  0  0  0  0  0  0  0  0  0  0
    2.9128   -2.6638    0.0000 C   0  0  0  0  0  0  0  0  0  0  0  0
    5.0693   -3.9045    0.0000 C   0  0  0  0  0  0  0  0  0  0  0  0
    5.7831   -3.4908    0.0000 C   0  0  2  0  0  0  0  0  0  0  0  0
    5.7793   -2.6540    0.0000 N   0  0  0  0  0  0  0  0  0  0  0  0
    5.0729   -2.2544    0.0000 C   0  0  0  0  0  0  0  0  0  0  0  0
    4.3608   -2.6586    0.0000 C   0  0  0  0  0  0  0  0  0  0  0  0
    7.2054   -2.6540    0.0000 O   0  0  0  0  0  0  0  0  0  0  0  0
    7.9379   -2.2484    0.0000 C   0  0  0  0  0  0  0  0  0  0  0  0
    7.9472   -1.4162    0.0000 C   0  0  0  0  0  0  0  0  0  0  0  0
    8.6475   -1.0137    0.0000 C   0  0  0  0  0  0  0  0  0  0  0  0
    8.6316   -0.1736    0.0000 F   0  0  0  0  0  0  0  0  0  0  0  0
    9.3642   -1.4249    0.0000 C   0  0  0  0  0  0  0  0  0  0  0  0
    9.3634   -2.2323    0.0000 N   0  0  0  0  0  0  0  0  0  0  0  0
    8.6448   -2.6646    0.0000 C   0  0  0  0  0  0  0  0  0  0  0  0
    6.4554   -2.2611    0.0000 C   0  0  0  0  0  0  0  0  0  0  0  0
    6.4861   -1.4138    0.0000 O   0  0  0  0  0  0  0  0  0  0  0  0
    6.5595   -3.9310    0.0000 C   0  0  0  0  0  0  0  0  0  0  0  0
  1  2  1  0  0  0  0
  1  6  1  0  0  0  0
  2  3  1  0  0  0  0
  2  4  1  0  0  0  0
  2  5  1  0  0  0  0
  6  7  2  0  0  0  0
  6 12  1  0  0  0  0
  7  8  1  0  0  0  0
  8 13  2  0  0  0  0
  9 10  1  0  0  0  0
 10 18  1  0  0  0  0
 11  9  1  0  0  0  0
 11 13  1  0  0  0  0
 12 11  2  0  0  0  0
 15 14  1  0  0  0  0
 14 10  1  0  0  0  0
 15 29  1  6  0  0  0
 15 16  1  0  0  0  0
 16 17  1  0  0  0  0
 16 27  1  0  0  0  0
 17 18  1  0  0  0  0
 19 20  1  0  0  0  0
 19 27  1  0  0  0  0
 20 26  2  0  0  0  0
 21 20  1  0  0  0  0
 21 22  2  0  0  0  0
 22 23  1  0  0  0  0
 22 24  1  0  0  0  0
 25 24  2  0  0  0  0
 26 25  1  0  0  0  0
 27 28  2  0  0  0  0
M  END
> <ID>
SCHEMBL21164453

> <InChIKey>
AOQXQEXFKWRHGD-CYBMUJFWSA-N

> <MW>
413.373

> <Series_Name>
Series_10

$$$$
SCHEMBL21164455
  Mrv1719007211921492D 0   0.00000     0.00000     0

 29 31  0  0  0  0              1 V2000 
    6.4426   -3.8307    0.0000 C   0  0  0  0  0  0  0  0  0  0  0  0
    8.8057   -0.1679    0.0000 N   0  0  0  0  0  0  0  0  0  0  0  0
    6.4426   -1.3619    0.0000 O   0  0  0  0  0  0  0  0  0  0  0  0
    5.7088   -3.4493    0.0000 C   0  0  2  0  0  0  0  0  0  0  0  0
    8.5984   -0.9370    0.0000 C   0  0  0  0  0  0  0  0  0  0  0  0
    9.3280   -1.3681    0.0000 C   0  0  0  0  0  0  0  0  0  0  0  0
    7.8977   -1.3557    0.0000 C   0  0  0  0  0  0  0  0  0  0  0  0
    7.8894   -2.1807    0.0000 C   0  0  0  0  0  0  0  0  0  0  0  0
    6.4965   -2.2014    0.0000 C   0  0  0  0  0  0  0  0  0  0  0  0
    2.8606   -3.4244    0.0000 C   0  0  0  0  0  0  0  0  0  0  0  0
    2.8606   -2.6119    0.0000 C   0  0  0  0  0  0  0  0  0  0  0  0
    2.1517   -2.1890    0.0000 C   0  0  0  0  0  0  0  0  0  0  0  0
    1.4303   -2.5994    0.0000 C   0  0  0  0  0  0  0  0  0  0  0  0
    1.4303   -3.4244    0.0000 C   0  0  0  0  0  0  0  0  0  0  0  0
    5.0123   -2.1890    0.0000 C   0  0  0  0  0  0  0  0  0  0  0  0
    4.3157   -2.5870    0.0000 C   0  0  0  0  0  0  0  0  0  0  0  0
    8.5942   -2.5994    0.0000 C   0  0  0  0  0  0  0  0  0  0  0  0
    5.0247   -3.8431    0.0000 C   0  0  0  0  0  0  0  0  0  0  0  0
    2.1517   -3.8431    0.0000 C   0  0  0  0  0  0  0  0  0  0  0  0
    3.5695   -3.8431    0.0000 C   0  0  0  0  0  0  0  0  0  0  0  0
    4.3096   -3.4265    0.0000 N   0  0  0  0  0  0  0  0  0  0  0  0
    7.1639   -2.6056    0.0000 O   0  0  0  0  0  0  0  0  0  0  0  0
    5.7399   -2.6056    0.0000 N   0  0  0  0  0  0  0  0  0  0  0  0
    9.3342   -2.1828    0.0000 N   0  0  0  0  0  0  0  0  0  0  0  0
    0.8036   -3.7852    0.0000 O   0  0  0  0  0  0  0  0  0  0  0  0
    0.1770   -4.1460    0.0000 C   0  0  0  0  0  0  0  0  0  0  0  0
   -0.4489   -3.7836    0.0000 F   0  0  0  0  0  0  0  0  0  0  0  0
    0.1760   -4.8691    0.0000 F   0  0  0  0  0  0  0  0  0  0  0  0
   -0.4497   -4.5067    0.0000 F   0  0  0  0  0  0  0  0  0  0  0  0
  2  5  1  0  0  0  0
  5  6  1  0  0  0  0
  5  7  2  0  0  0  0
  7  8  1  0  0  0  0
  3  9  2  0  0  0  0
 10 11  1  0  0  0  0
 11 12  2  0  0  0  0
 12 13  1  0  0  0  0
 13 14  2  0  0  0  0
 15 16  1  0  0  0  0
  8 17  2  0  0  0  0
  4 18  1  0  0  0  0
 10 19  2  0  0  0  0
 14 19  1  0  0  0  0
 10 20  1  0  0  0  0
 16 21  1  0  0  0  0
 18 21  1  0  0  0  0
 20 21  1  0  0  0  0
  8 22  1  0  0  0  0
  9 22  1  0  0  0  0
  4 23  1  0  0  0  0
  9 23  1  0  0  0  0
 15 23  1  0  0  0  0
  6 24  2  0  0  0  0
 17 24  1  0  0  0  0
  4  1  1  6  0  0  0
 14 25  1  0  0  0  0
 25 26  1  0  0  0  0
 26 27  1  0  0  0  0
 26 28  1  0  0  0  0
 26 29  1  0  0  0  0
M  END
> <ID>
SCHEMBL21164455

> <InChIKey>
IOTPJJYDSMVNEF-CYBMUJFWSA-N

> <MW>
410.397

> <Series_Name>
Series_10

$$$$
SCHEMBL21164459
  Mrv1719007211921512D 0   0.00000     0.00000     0

 30 32  0  0  1  0              1 V2000 
    0.7477   -2.8966    0.0000 C   0  0  0  0  0  0  0  0  0  0  0  0
    0.4211   -3.3342    0.0000 F   0  0  0  0  0  0  0  0  0  0  0  0
    0.9633   -3.3982    0.0000 F   0  0  0  0  0  0  0  0  0  0  0  0
    0.3102   -2.5700    0.0000 F   0  0  0  0  0  0  0  0  0  0  0  0
    1.2493   -2.6810    0.0000 C   0  0  0  0  0  0  0  0  0  0  0  0
    1.2538   -1.8402    0.0000 C   0  0  0  0  0  0  0  0  0  0  0  0
    1.9624   -1.4347    0.0000 C   0  0  0  0  0  0  0  0  0  0  0  0
    2.6865   -1.8469    0.0000 C   0  0  0  0  0  0  0  0  0  0  0  0
    2.6742   -2.6702    0.0000 C   0  0  0  0  0  0  0  0  0  0  0  0
    4.1098   -2.6652    0.0000 N   0  0  0  0  0  0  0  0  0  0  0  0
    3.4018   -3.0950    0.0000 C   0  0  0  0  0  0  0  0  0  0  0  0
    1.9648   -3.0913    0.0000 C   0  0  0  0  0  0  0  0  0  0  0  0
    1.9612   -3.9168    0.0000 C   0  0  0  0  0  0  0  0  0  0  0  0
    5.5489   -2.6813    0.0000 C   0  0  2  0  0  0  0  0  0  0  0  0
    4.8384   -3.0995    0.0000 C   0  0  0  0  0  0  0  0  0  0  0  0
    4.1339   -1.8421    0.0000 C   0  0  0  0  0  0  0  0  0  0  0  0
    4.8357   -1.4361    0.0000 C   0  0  0  0  0  0  0  0  0  0  0  0
    5.5544   -1.8307    0.0000 N   0  0  0  0  0  0  0  0  0  0  0  0
    6.9867   -1.8307    0.0000 O   0  0  0  0  0  0  0  0  0  0  0  0
    7.7139   -1.4335    0.0000 C   0  0  0  0  0  0  0  0  0  0  0  0
    7.7168   -0.5974    0.0000 C   0  0  0  0  0  0  0  0  0  0  0  0
    8.4313   -0.1744    0.0000 N   0  0  0  0  0  0  0  0  0  0  0  0
    9.1589   -0.6108    0.0000 C   0  0  0  0  0  0  0  0  0  0  0  0
    9.1603   -1.4331    0.0000 C   0  0  0  0  0  0  0  0  0  0  0  0
    9.6525   -1.6695    0.0000 C   0  0  0  0  0  0  0  0  0  0  0  0
   10.1445   -1.9059    0.0000 N   0  0  0  0  0  0  0  0  0  0  0  0
    8.4335   -1.8493    0.0000 C   0  0  0  0  0  0  0  0  0  0  0  0
    6.2644   -0.5854    0.0000 O   0  0  0  0  0  0  0  0  0  0  0  0
    6.2999   -1.4486    0.0000 C   0  0  0  0  0  0  0  0  0  0  0  0
    6.3371   -3.1201    0.0000 C   0  0  0  0  0  0  0  0  0  0  0  0
  1  2  1  0  0  0  0
  1  3  1  0  0  0  0
  1  4  1  0  0  0  0
  1  5  1  0  0  0  0
  5 12  2  0  0  0  0
  6  7  2  0  0  0  0
  6  5  1  0  0  0  0
  8  7  1  0  0  0  0
  9  8  2  0  0  0  0
 10 11  1  0  0  0  0
 11  9  1  0  0  0  0
 12 13  1  0  0  0  0
 12  9  1  0  0  0  0
 14 15  1  0  0  0  0
 14 30  1  6  0  0  0
 14 18  1  0  0  0  0
 15 10  1  0  0  0  0
 16 17  1  0  0  0  0
 16 10  1  0  0  0  0
 17 18  1  0  0  0  0
 19 20  1  0  0  0  0
 20 21  2  0  0  0  0
 20 27  1  0  0  0  0
 21 22  1  0  0  0  0
 22 23  2  0  0  0  0
 24 23  1  0  0  0  0
 24 25  1  0  0  0  0
 25 26  3  0  0  0  0
 27 24  2  0  0  0  0
 28 29  2  0  0  0  0
 29 19  1  0  0  0  0
 29 18  1  0  0  0  0
M  END
> <ID>
SCHEMBL21164459

> <InChIKey>
XKSYEMIFDAAMKN-CQSZACIVSA-N

> <MW>
418.42

> <Series_Name>
Series_10

$$$$
SCHEMBL21164598
  Mrv1719007211923242D 0   0.00000     0.00000     0

 31 33  0  0  1  0              1 V2000 
    0.7841   -1.8329    0.0000 C   0  0  0  0  0  0  0  0  0  0  0  0
    0.7887   -2.6575    0.0000 C   0  0  0  0  0  0  0  0  0  0  0  0
    1.4812   -3.0610    0.0000 O   0  0  0  0  0  0  0  0  0  0  0  0
    0.0687   -3.0745    0.0000 C   0  0  0  0  0  0  0  0  0  0  0  0
    2.2153   -2.6575    0.0000 C   0  0  0  0  0  0  0  0  0  0  0  0
    1.3818   -1.4221    0.0000 Cl  0  0  0  0  0  0  0  0  0  0  0  0
    2.2131   -1.8321    0.0000 C   0  0  0  0  0  0  0  0  0  0  0  0
    2.9281   -1.4261    0.0000 C   0  0  0  0  0  0  0  0  0  0  0  0
    3.6319   -2.6576    0.0000 C   0  0  0  0  0  0  0  0  0  0  0  0
    4.3446   -3.0666    0.0000 C   0  0  0  0  0  0  0  0  0  0  0  0
    5.0482   -2.6414    0.0000 N   0  0  0  0  0  0  0  0  0  0  0  0
    2.9173   -3.0663    0.0000 C   0  0  0  0  0  0  0  0  0  0  0  0
    3.6272   -1.8367    0.0000 C   0  0  0  0  0  0  0  0  0  0  0  0
    5.7660   -3.0691    0.0000 C   0  0  0  0  0  0  0  0  0  0  0  0
    6.4833   -2.6566    0.0000 C   0  0  2  0  0  0  0  0  0  0  0  0
    5.7702   -1.4263    0.0000 C   0  0  0  0  0  0  0  0  0  0  0  0
    6.4800   -1.8267    0.0000 N   0  0  0  0  0  0  0  0  0  0  0  0
    5.0741   -1.8251    0.0000 C   0  0  0  0  0  0  0  0  0  0  0  0
   10.0518   -1.4268    0.0000 C   0  0  0  0  0  0  0  0  0  0  0  0
   10.7754   -1.8663    0.0000 C   0  0  0  0  0  0  0  0  0  0  0  0
    9.3330   -1.8368    0.0000 C   0  0  0  0  0  0  0  0  0  0  0  0
    8.6141   -1.4246    0.0000 C   0  0  0  0  0  0  0  0  0  0  0  0
    7.8994   -1.8267    0.0000 O   0  0  0  0  0  0  0  0  0  0  0  0
    8.6235   -0.5946    0.0000 C   0  0  0  0  0  0  0  0  0  0  0  0
    9.3312   -0.1728    0.0000 N   0  0  0  0  0  0  0  0  0  0  0  0
   10.0517   -0.6009    0.0000 C   0  0  0  0  0  0  0  0  0  0  0  0
   11.4541   -1.4071    0.0000 O   0  0  0  0  0  0  0  0  0  0  0  0
   10.8740   -2.6414    0.0000 N   0  0  0  0  0  0  0  0  0  0  0  0
    7.1834   -0.5925    0.0000 O   0  0  0  0  0  0  0  0  0  0  0  0
    7.1999   -1.4386    0.0000 C   0  0  0  0  0  0  0  0  0  0  0  0
    7.2532   -3.0996    0.0000 C   0  0  0  0  0  0  0  0  0  0  0  0
  1  2  1  0  0  0  0
  2  3  1  0  0  0  0
  2  4  1  0  0  0  0
  3  5  1  0  0  0  0
  5 12  2  0  0  0  0
  6  7  1  0  0  0  0
  7  8  2  0  0  0  0
  7  5  1  0  0  0  0
  8 13  1  0  0  0  0
  9 10  1  0  0  0  0
  9 12  1  0  0  0  0
 10 11  1  0  0  0  0
 11 18  1  0  0  0  0
 13  9  2  0  0  0  0
 15 14  1  0  0  0  0
 14 11  1  0  0  0  0
 15 31  1  6  0  0  0
 15 17  1  0  0  0  0
 16 17  1  0  0  0  0
 16 18  1  0  0  0  0
 19 20  1  0  0  0  0
 19 21  1  0  0  0  0
 20 27  2  0  0  0  0
 22 21  2  0  0  0  0
 22 24  1  0  0  0  0
 23 22  1  0  0  0  0
 24 25  2  0  0  0  0
 25 26  1  0  0  0  0
 26 19  2  0  0  0  0
 28 20  1  0  0  0  0
 29 30  2  0  0  0  0
 30 23  1  0  0  0  0
 30 17  1  0  0  0  0
M  END
> <ID>
SCHEMBL21164598

> <InChIKey>
CQOUWJGXAVKBJS-OAHLLOKOSA-N

> <MW>
446.93

> <Series_Name>
Series_10

$$$$
SCHEMBL21164599
  Mrv1719007211923242D 0   0.00000     0.00000     0

 30 32  0  0  1  0              1 V2000 
    0.7372   -3.7120    0.0000 C   0  0  0  0  0  0  0  0  0  0  0  0
    0.4147   -4.1537    0.0000 F   0  0  0  0  0  0  0  0  0  0  0  0
    0.9585   -4.2121    0.0000 F   0  0  0  0  0  0  0  0  0  0  0  0
    0.2955   -3.3895    0.0000 F   0  0  0  0  0  0  0  0  0  0  0  0
    1.2373   -3.4908    0.0000 C   0  0  0  0  0  0  0  0  0  0  0  0
    1.2440   -2.6565    0.0000 C   0  0  0  0  0  0  0  0  0  0  0  0
    1.9524   -2.2458    0.0000 C   0  0  0  0  0  0  0  0  0  0  0  0
    1.9340   -1.4133    0.0000 F   0  0  0  0  0  0  0  0  0  0  0  0
    2.6680   -2.6647    0.0000 C   0  0  0  0  0  0  0  0  0  0  0  0
    2.6714   -3.4915    0.0000 C   0  0  0  0  0  0  0  0  0  0  0  0
    3.3795   -3.8989    0.0000 C   0  0  0  0  0  0  0  0  0  0  0  0
    4.0912   -3.4713    0.0000 N   0  0  0  0  0  0  0  0  0  0  0  0
    1.9490   -3.9030    0.0000 C   0  0  0  0  0  0  0  0  0  0  0  0
    4.8119   -3.9025    0.0000 C   0  0  0  0  0  0  0  0  0  0  0  0
    5.5307   -3.4864    0.0000 C   0  0  2  0  0  0  0  0  0  0  0  0
    4.1076   -2.6565    0.0000 C   0  0  0  0  0  0  0  0  0  0  0  0
    4.8130   -2.2538    0.0000 C   0  0  0  0  0  0  0  0  0  0  0  0
    5.5293   -2.6531    0.0000 N   0  0  0  0  0  0  0  0  0  0  0  0
    6.9550   -2.6531    0.0000 O   0  0  0  0  0  0  0  0  0  0  0  0
    7.6783   -2.2535    0.0000 C   0  0  0  0  0  0  0  0  0  0  0  0
    7.6858   -1.4238    0.0000 C   0  0  0  0  0  0  0  0  0  0  0  0
    8.3926   -1.0114    0.0000 C   0  0  0  0  0  0  0  0  0  0  0  0
    8.4651   -0.4694    0.0000 C   0  0  0  0  0  0  0  0  0  0  0  0
    8.5376    0.0727    0.0000 N   0  0  0  0  0  0  0  0  0  0  0  0
    9.1121   -2.2315    0.0000 N   0  0  0  0  0  0  0  0  0  0  0  0
    9.1142   -1.4269    0.0000 C   0  0  0  0  0  0  0  0  0  0  0  0
    8.3950   -2.6621    0.0000 C   0  0  0  0  0  0  0  0  0  0  0  0
    6.2360   -1.4133    0.0000 O   0  0  0  0  0  0  0  0  0  0  0  0
    6.2525   -2.2631    0.0000 C   0  0  0  0  0  0  0  0  0  0  0  0
    6.3079   -3.9308    0.0000 C   0  0  0  0  0  0  0  0  0  0  0  0
  1  2  1  0  0  0  0
  1  3  1  0  0  0  0
  1  4  1  0  0  0  0
  1  5  1  0  0  0  0
  5  6  2  0  0  0  0
  5 13  1  0  0  0  0
  6  7  1  0  0  0  0
  7  9  2  0  0  0  0
  8  7  1  0  0  0  0
  9 10  1  0  0  0  0
 10 11  1  0  0  0  0
 11 12  1  0  0  0  0
 12 16  1  0  0  0  0
 13 10  2  0  0  0  0
 15 14  1  0  0  0  0
 14 12  1  0  0  0  0
 15 30  1  6  0  0  0
 15 18  1  0  0  0  0
 16 17  1  0  0  0  0
 18 17  1  0  0  0  0
 19 20  1  0  0  0  0
 20 27  2  0  0  0  0
 21 22  2  0  0  0  0
 21 20  1  0  0  0  0
 22 23  1  0  0  0  0
 23 24  3  0  0  0  0
 25 26  2  0  0  0  0
 26 22  1  0  0  0  0
 27 25  1  0  0  0  0
 28 29  2  0  0  0  0
 29 19  1  0  0  0  0
 29 18  1  0  0  0  0
M  END
> <ID>
SCHEMBL21164599

> <InChIKey>
LQUZFLKHCPYJMZ-CYBMUJFWSA-N

> <MW>
422.384

> <Series_Name>
Series_10

$$$$
SCHEMBL21164600
  Mrv1719007211923242D 0   0.00000     0.00000     0

 30 32  0  0  1  0              1 V2000 
    0.9933   -3.7155    0.0000 O   0  0  0  0  0  0  0  0  0  0  0  0
    0.5704   -3.3733    0.0000 C   0  0  0  0  0  0  0  0  0  0  0  0
    0.0328   -3.2884    0.0000 F   0  0  0  0  0  0  0  0  0  0  0  0
    0.2281   -3.7964    0.0000 F   0  0  0  0  0  0  0  0  0  0  0  0
    0.6551   -2.8358    0.0000 F   0  0  0  0  0  0  0  0  0  0  0  0
    1.5013   -3.5202    0.0000 C   0  0  0  0  0  0  0  0  0  0  0  0
    2.2108   -1.4240    0.0000 F   0  0  0  0  0  0  0  0  0  0  0  0
    2.2256   -2.2709    0.0000 C   0  0  0  0  0  0  0  0  0  0  0  0
    2.9362   -2.6846    0.0000 C   0  0  0  0  0  0  0  0  0  0  0  0
    4.3844   -3.4975    0.0000 N   0  0  0  0  0  0  0  0  0  0  0  0
    3.6258   -3.9144    0.0000 C   0  0  0  0  0  0  0  0  0  0  0  0
    2.9458   -3.5142    0.0000 C   0  0  0  0  0  0  0  0  0  0  0  0
    2.2260   -3.9223    0.0000 C   0  0  0  0  0  0  0  0  0  0  0  0
    1.5130   -2.6823    0.0000 C   0  0  0  0  0  0  0  0  0  0  0  0
    5.1039   -3.9284    0.0000 C   0  0  0  0  0  0  0  0  0  0  0  0
    5.7919   -3.5426    0.0000 C   0  0  2  0  0  0  0  0  0  0  0  0
    5.8208   -2.6730    0.0000 N   0  0  0  0  0  0  0  0  0  0  0  0
    5.1085   -2.2768    0.0000 C   0  0  0  0  0  0  0  0  0  0  0  0
    4.3984   -2.6823    0.0000 C   0  0  0  0  0  0  0  0  0  0  0  0
    7.2572   -2.6730    0.0000 O   0  0  0  0  0  0  0  0  0  0  0  0
    8.0040   -2.2715    0.0000 C   0  0  0  0  0  0  0  0  0  0  0  0
    8.0018   -1.4286    0.0000 C   0  0  0  0  0  0  0  0  0  0  0  0
    8.7111   -1.0175    0.0000 C   0  0  0  0  0  0  0  0  0  0  0  0
    8.8311   -0.1749    0.0000 N   0  0  0  0  0  0  0  0  0  0  0  0
    9.4307   -2.2483    0.0000 N   0  0  0  0  0  0  0  0  0  0  0  0
    9.4328   -1.4371    0.0000 C   0  0  0  0  0  0  0  0  0  0  0  0
    8.7089   -2.6803    0.0000 C   0  0  0  0  0  0  0  0  0  0  0  0
    6.5440   -2.2714    0.0000 C   0  0  0  0  0  0  0  0  0  0  0  0
    6.5328   -1.4240    0.0000 O   0  0  0  0  0  0  0  0  0  0  0  0
    6.6067   -3.9632    0.0000 C   0  0  0  0  0  0  0  0  0  0  0  0
  1  2  1  0  0  0  0
  1  6  1  0  0  0  0
  2  3  1  0  0  0  0
  2  4  1  0  0  0  0
  2  5  1  0  0  0  0
  6 13  1  0  0  0  0
  6 14  2  0  0  0  0
  7  8  1  0  0  0  0
  8  9  2  0  0  0  0
 10 11  1  0  0  0  0
 10 15  1  0  0  0  0
 12 11  1  0  0  0  0
 12  9  1  0  0  0  0
 13 12  2  0  0  0  0
 14  8  1  0  0  0  0
 16 17  1  0  0  0  0
 16 15  1  0  0  0  0
 16 30  1  6  0  0  0
 18 17  1  0  0  0  0
 18 19  1  0  0  0  0
 19 10  1  0  0  0  0
 20 21  1  0  0  0  0
 21 27  2  0  0  0  0
 22 23  2  0  0  0  0
 22 21  1  0  0  0  0
 23 24  1  0  0  0  0
 25 26  2  0  0  0  0
 26 23  1  0  0  0  0
 27 25  1  0  0  0  0
 28 17  1  0  0  0  0
 28 20  1  0  0  0  0
 29 28  2  0  0  0  0
M  END
> <ID>
SCHEMBL21164600

> <InChIKey>
LPABZVBQLFCCLS-GFCCVEGCSA-N

> <MW>
428.388

> <Series_Name>
Series_10

$$$$
SCHEMBL21164653
  Mrv1719007221900292D 0   0.00000     0.00000     0

 31 33  0  0  1  0              1 V2000 
    0.7295   -2.8942    0.0000 C   0  0  0  0  0  0  0  0  0  0  0  0
    0.4084   -3.3370    0.0000 F   0  0  0  0  0  0  0  0  0  0  0  0
    0.9524   -3.3937    0.0000 F   0  0  0  0  0  0  0  0  0  0  0  0
    0.2867   -2.5732    0.0000 F   0  0  0  0  0  0  0  0  0  0  0  0
    1.2289   -2.6713    0.0000 C   0  0  0  0  0  0  0  0  0  0  0  0
    1.2310   -1.8374    0.0000 C   0  0  0  0  0  0  0  0  0  0  0  0
    1.9454   -1.4268    0.0000 C   0  0  0  0  0  0  0  0  0  0  0  0
    2.6690   -1.8441    0.0000 C   0  0  0  0  0  0  0  0  0  0  0  0
    2.6536   -2.6690    0.0000 C   0  0  0  0  0  0  0  0  0  0  0  0
    3.3744   -3.0817    0.0000 C   0  0  0  0  0  0  0  0  0  0  0  0
    4.0894   -2.6519    0.0000 N   0  0  0  0  0  0  0  0  0  0  0  0
    1.9514   -3.8974    0.0000 C   0  0  0  0  0  0  0  0  0  0  0  0
    1.9469   -3.0741    0.0000 C   0  0  0  0  0  0  0  0  0  0  0  0
    4.8062   -3.0833    0.0000 C   0  0  0  0  0  0  0  0  0  0  0  0
    5.5224   -2.6638    0.0000 C   0  0  2  0  0  0  0  0  0  0  0  0
    5.5145   -1.8340    0.0000 N   0  0  0  0  0  0  0  0  0  0  0  0
    4.8063   -1.4278    0.0000 C   0  0  0  0  0  0  0  0  0  0  0  0
    4.0972   -1.8387    0.0000 C   0  0  0  0  0  0  0  0  0  0  0  0
    7.6765   -1.4291    0.0000 C   0  0  0  0  0  0  0  0  0  0  0  0
    6.9396   -1.8340    0.0000 O   0  0  0  0  0  0  0  0  0  0  0  0
    6.9080   -0.1586    0.0000 C   0  0  0  0  0  0  0  0  0  0  0  0
    7.6745   -0.6003    0.0000 C   0  0  0  0  0  0  0  0  0  0  0  0
    8.3771   -0.1735    0.0000 N   0  0  0  0  0  0  0  0  0  0  0  0
    8.3773   -1.8410    0.0000 C   0  0  0  0  0  0  0  0  0  0  0  0
    9.0943   -1.4319    0.0000 C   0  0  0  0  0  0  0  0  0  0  0  0
    9.0965   -0.6049    0.0000 C   0  0  0  0  0  0  0  0  0  0  0  0
    9.5867   -1.6699    0.0000 C   0  0  0  0  0  0  0  0  0  0  0  0
   10.0791   -1.9080    0.0000 N   0  0  0  0  0  0  0  0  0  0  0  0
    6.1868   -1.4443    0.0000 C   0  0  0  0  0  0  0  0  0  0  0  0
    6.2209   -0.5948    0.0000 O   0  0  0  0  0  0  0  0  0  0  0  0
    6.2997   -3.1043    0.0000 C   0  0  0  0  0  0  0  0  0  0  0  0
  1  2  1  0  0  0  0
  1  3  1  0  0  0  0
  1  4  1  0  0  0  0
  1  5  1  0  0  0  0
  5  6  2  0  0  0  0
  5 13  1  0  0  0  0
  6  7  1  0  0  0  0
  7  8  2  0  0  0  0
  9  8  1  0  0  0  0
  9 10  1  0  0  0  0
 10 11  1  0  0  0  0
 11 18  1  0  0  0  0
 12 13  1  0  0  0  0
 13  9  2  0  0  0  0
 15 14  1  0  0  0  0
 14 11  1  0  0  0  0
 15 16  1  0  0  0  0
 15 31  1  6  0  0  0
 16 29  1  0  0  0  0
 17 16  1  0  0  0  0
 17 18  1  0  0  0  0
 19 20  1  0  0  0  0
 19 24  1  0  0  0  0
 20 29  1  0  0  0  0
 21 22  1  0  0  0  0
 22 23  1  0  0  0  0
 22 19  2  0  0  0  0
 23 26  2  0  0  0  0
 24 25  2  0  0  0  0
 25 27  1  0  0  0  0
 26 25  1  0  0  0  0
 27 28  3  0  0  0  0
 29 30  2  0  0  0  0
M  END
> <ID>
SCHEMBL21164653

> <InChIKey>
HOKZZMAVGNYNDS-CQSZACIVSA-N

> <MW>
432.447

> <Series_Name>
Series_10

$$$$
SCHEMBL21164654
  Mrv1719007221900312D 0   0.00000     0.00000     0

 31 33  0  0  1  0              1 V2000 
    1.2401   -2.6862    0.0000 C   0  0  0  0  0  0  0  0  0  0  0  0
    1.9769   -3.0924    0.0000 C   0  0  0  0  0  0  0  0  0  0  0  0
    0.7403   -2.9052    0.0000 C   0  0  0  0  0  0  0  0  0  0  0  0
    0.4170   -3.3447    0.0000 F   0  0  0  0  0  0  0  0  0  0  0  0
    0.9593   -3.4050    0.0000 F   0  0  0  0  0  0  0  0  0  0  0  0
    0.3008   -2.5819    0.0000 F   0  0  0  0  0  0  0  0  0  0  0  0
    1.2492   -1.8487    0.0000 C   0  0  0  0  0  0  0  0  0  0  0  0
    1.9570   -1.4346    0.0000 C   0  0  0  0  0  0  0  0  0  0  0  0
    2.6925   -1.8623    0.0000 C   0  0  0  0  0  0  0  0  0  0  0  0
    2.6935   -2.6873    0.0000 C   0  0  0  0  0  0  0  0  0  0  0  0
    3.4001   -3.0962    0.0000 C   0  0  0  0  0  0  0  0  0  0  0  0
    4.1246   -2.6748    0.0000 N   0  0  0  0  0  0  0  0  0  0  0  0
    1.9680   -3.9184    0.0000 C   0  0  0  0  0  0  0  0  0  0  0  0
    4.8456   -3.0957    0.0000 C   0  0  0  0  0  0  0  0  0  0  0  0
    5.5549   -2.6871    0.0000 C   0  0  1  0  0  0  0  0  0  0  0  0
    5.5620   -1.8373    0.0000 N   0  0  0  0  0  0  0  0  0  0  0  0
    6.2387   -3.0618    0.0000 C   0  0  0  0  0  0  0  0  0  0  0  0
    4.1363   -1.8487    0.0000 C   0  0  0  0  0  0  0  0  0  0  0  0
    4.8443   -1.4346    0.0000 C   0  0  0  0  0  0  0  0  0  0  0  0
    9.1708   -1.4391    0.0000 C   0  0  0  0  0  0  0  0  0  0  0  0
    9.9074   -1.8924    0.0000 C   0  0  0  0  0  0  0  0  0  0  0  0
    7.7438   -1.4362    0.0000 C   0  0  0  0  0  0  0  0  0  0  0  0
    8.4547   -1.8498    0.0000 C   0  0  0  0  0  0  0  0  0  0  0  0
    6.9993   -1.8373    0.0000 O   0  0  0  0  0  0  0  0  0  0  0  0
    7.7509   -0.5975    0.0000 C   0  0  0  0  0  0  0  0  0  0  0  0
    8.4492   -0.1750    0.0000 N   0  0  0  0  0  0  0  0  0  0  0  0
    9.1765   -0.6024    0.0000 C   0  0  0  0  0  0  0  0  0  0  0  0
   10.6115   -1.4249    0.0000 O   0  0  0  0  0  0  0  0  0  0  0  0
   10.0240   -2.6748    0.0000 N   0  0  0  0  0  0  0  0  0  0  0  0
    6.3510   -1.4618    0.0000 C   0  0  0  0  0  0  0  0  0  0  0  0
    6.2744   -0.5874    0.0000 O   0  0  0  0  0  0  0  0  0  0  0  0
  1  2  2  0  0  0  0
  1  7  1  0  0  0  0
  2 13  1  0  0  0  0
  3  4  1  0  0  0  0
  3  5  1  0  0  0  0
  3  6  1  0  0  0  0
  3  1  1  0  0  0  0
  7  8  2  0  0  0  0
  8  9  1  0  0  0  0
  9 10  2  0  0  0  0
 10 11  1  0  0  0  0
 10  2  1  0  0  0  0
 11 12  1  0  0  0  0
 15 14  1  0  0  0  0
 14 12  1  0  0  0  0
 15 17  1  1  0  0  0
 15 16  1  0  0  0  0
 16 19  1  0  0  0  0
 18 19  1  0  0  0  0
 18 12  1  0  0  0  0
 20 21  1  0  0  0  0
 20 27  2  0  0  0  0
 21 28  2  0  0  0  0
 22 23  2  0  0  0  0
 22 25  1  0  0  0  0
 23 20  1  0  0  0  0
 24 22  1  0  0  0  0
 25 26  2  0  0  0  0
 27 26  1  0  0  0  0
 29 21  1  0  0  0  0
 30 16  1  0  0  0  0
 30 24  1  0  0  0  0
 31 30  2  0  0  0  0
M  END
> <ID>
SCHEMBL21164654

> <InChIKey>
ZVQVJIBFBAPJLI-ZDUSSCGKSA-N

> <MW>
436.435

> <Series_Name>
Series_10

$$$$
SCHEMBL21164667
  Mrv1719007221900512D 0   0.00000     0.00000     0

 30 32  0  0  1  0              1 V2000 
    1.2926   -3.0687    0.0000 C   0  0  0  0  0  0  0  0  0  0  0  0
    0.3769   -2.6447    0.0000 N   0  0  0  0  0  0  0  0  0  0  0  0
    2.0114   -2.6623    0.0000 C   0  0  0  0  0  0  0  0  0  0  0  0
    1.1796   -1.4239    0.0000 Cl  0  0  0  0  0  0  0  0  0  0  0  0
    2.0127   -1.8381    0.0000 C   0  0  0  0  0  0  0  0  0  0  0  0
    2.7162   -1.4265    0.0000 C   0  0  0  0  0  0  0  0  0  0  0  0
    3.4403   -1.8378    0.0000 C   0  0  0  0  0  0  0  0  0  0  0  0
    3.4387   -2.6651    0.0000 C   0  0  0  0  0  0  0  0  0  0  0  0
    4.1469   -3.0705    0.0000 C   0  0  0  0  0  0  0  0  0  0  0  0
    4.8569   -2.6447    0.0000 N   0  0  0  0  0  0  0  0  0  0  0  0
    2.7265   -3.0628    0.0000 C   0  0  0  0  0  0  0  0  0  0  0  0
    1.2853   -3.8806    0.0000 O   0  0  0  0  0  0  0  0  0  0  0  0
    5.5723   -3.0747    0.0000 C   0  0  0  0  0  0  0  0  0  0  0  0
    6.2913   -2.6576    0.0000 C   0  0  2  0  0  0  0  0  0  0  0  0
    6.2781   -1.8291    0.0000 N   0  0  0  0  0  0  0  0  0  0  0  0
    4.8603   -1.8336    0.0000 C   0  0  0  0  0  0  0  0  0  0  0  0
    5.5741   -1.4230    0.0000 C   0  0  0  0  0  0  0  0  0  0  0  0
    9.8581   -1.4283    0.0000 C   0  0  0  0  0  0  0  0  0  0  0  0
    9.1447   -1.8389    0.0000 C   0  0  0  0  0  0  0  0  0  0  0  0
    8.4293   -1.4281    0.0000 C   0  0  0  0  0  0  0  0  0  0  0  0
    7.6994   -1.8291    0.0000 O   0  0  0  0  0  0  0  0  0  0  0  0
    8.4327   -0.5967    0.0000 C   0  0  0  0  0  0  0  0  0  0  0  0
    9.1330   -0.1730    0.0000 N   0  0  0  0  0  0  0  0  0  0  0  0
    9.8481   -0.6026    0.0000 C   0  0  0  0  0  0  0  0  0  0  0  0
   10.5296   -1.8080    0.0000 C   0  0  0  0  0  0  0  0  0  0  0  0
   11.2710   -1.4088    0.0000 O   0  0  0  0  0  0  0  0  0  0  0  0
   10.6901   -2.6447    0.0000 N   0  0  0  0  0  0  0  0  0  0  0  0
    6.9518   -1.4364    0.0000 C   0  0  0  0  0  0  0  0  0  0  0  0
    6.9949   -0.5932    0.0000 O   0  0  0  0  0  0  0  0  0  0  0  0
    7.0611   -3.1025    0.0000 C   0  0  0  0  0  0  0  0  0  0  0  0
  1  2  1  0  0  0  0
  1  3  1  0  0  0  0
  3 11  2  0  0  0  0
  4  5  1  0  0  0  0
  5  6  2  0  0  0  0
  5  3  1  0  0  0  0
  6  7  1  0  0  0  0
  8  7  2  0  0  0  0
  9 10  1  0  0  0  0
  9  8  1  0  0  0  0
 10 16  1  0  0  0  0
 11  8  1  0  0  0  0
 12  1  2  0  0  0  0
 14 13  1  0  0  0  0
 13 10  1  0  0  0  0
 14 30  1  6  0  0  0
 14 15  1  0  0  0  0
 15 28  1  0  0  0  0
 16 17  1  0  0  0  0
 17 15  1  0  0  0  0
 18 19  1  0  0  0  0
 18 25  1  0  0  0  0
 20 19  2  0  0  0  0
 20 22  1  0  0  0  0
 21 20  1  0  0  0  0
 21 28  1  0  0  0  0
 22 23  2  0  0  0  0
 23 24  1  0  0  0  0
 24 18  2  0  0  0  0
 25 26  2  0  0  0  0
 27 25  1  0  0  0  0
 28 29  2  0  0  0  0
M  END
> <ID>
SCHEMBL21164667

> <InChIKey>
YRKZSCHDHDNESF-GFCCVEGCSA-N

> <MW>
431.88

> <Series_Name>
Series_10

$$$$
SCHEMBL21164670
  Mrv1719007221900532D 0   0.00000     0.00000     0

 29 31  0  0  1  0              1 V2000 
    0.7203   -3.7055    0.0000 C   0  0  0  0  0  0  0  0  0  0  0  0
    0.4005   -4.1476    0.0000 F   0  0  0  0  0  0  0  0  0  0  0  0
    0.9433   -4.2035    0.0000 F   0  0  0  0  0  0  0  0  0  0  0  0
    0.2782   -3.3857    0.0000 F   0  0  0  0  0  0  0  0  0  0  0  0
    1.2183   -3.4826    0.0000 C   0  0  0  0  0  0  0  0  0  0  0  0
    1.2315   -2.6549    0.0000 C   0  0  0  0  0  0  0  0  0  0  0  0
    1.9439   -2.2445    0.0000 C   0  0  0  0  0  0  0  0  0  0  0  0
    1.9283   -1.4091    0.0000 F   0  0  0  0  0  0  0  0  0  0  0  0
    2.6495   -3.4874    0.0000 C   0  0  0  0  0  0  0  0  0  0  0  0
    2.6648   -2.6617    0.0000 C   0  0  0  0  0  0  0  0  0  0  0  0
    3.3685   -3.8962    0.0000 C   0  0  0  0  0  0  0  0  0  0  0  0
    4.0791   -3.4734    0.0000 N   0  0  0  0  0  0  0  0  0  0  0  0
    1.9434   -3.8948    0.0000 C   0  0  0  0  0  0  0  0  0  0  0  0
    4.7987   -3.8973    0.0000 C   0  0  0  0  0  0  0  0  0  0  0  0
    5.5070   -3.4846    0.0000 C   0  0  2  0  0  0  0  0  0  0  0  0
    4.0891   -2.6544    0.0000 C   0  0  0  0  0  0  0  0  0  0  0  0
    4.7985   -2.2448    0.0000 C   0  0  0  0  0  0  0  0  0  0  0  0
    5.5130   -2.6452    0.0000 N   0  0  0  0  0  0  0  0  0  0  0  0
    6.9221   -2.6452    0.0000 O   0  0  0  0  0  0  0  0  0  0  0  0
    7.6541   -2.2462    0.0000 C   0  0  0  0  0  0  0  0  0  0  0  0
    7.6599   -1.4193    0.0000 C   0  0  0  0  0  0  0  0  0  0  0  0
    8.3715   -1.0128    0.0000 C   0  0  0  0  0  0  0  0  0  0  0  0
    8.4919   -0.1731    0.0000 N   0  0  0  0  0  0  0  0  0  0  0  0
    9.0729   -2.2373    0.0000 N   0  0  0  0  0  0  0  0  0  0  0  0
    9.0836   -1.4294    0.0000 C   0  0  0  0  0  0  0  0  0  0  0  0
    8.3656   -2.6539    0.0000 C   0  0  0  0  0  0  0  0  0  0  0  0
    6.2902   -2.2781    0.0000 C   0  0  0  0  0  0  0  0  0  0  0  0
    6.2175   -1.4091    0.0000 O   0  0  0  0  0  0  0  0  0  0  0  0
    6.2849   -3.9248    0.0000 C   0  0  0  0  0  0  0  0  0  0  0  0
  1  2  1  0  0  0  0
  1  3  1  0  0  0  0
  1  4  1  0  0  0  0
  1  5  1  0  0  0  0
  5  6  2  0  0  0  0
  5 13  1  0  0  0  0
  6  7  1  0  0  0  0
  7 10  2  0  0  0  0
  8  7  1  0  0  0  0
  9 10  1  0  0  0  0
  9 11  1  0  0  0  0
 11 12  1  0  0  0  0
 12 16  1  0  0  0  0
 13  9  2  0  0  0  0
 15 14  1  0  0  0  0
 14 12  1  0  0  0  0
 15 29  1  6  0  0  0
 15 18  1  0  0  0  0
 16 17  1  0  0  0  0
 17 18  1  0  0  0  0
 19 20  1  0  0  0  0
 20 26  2  0  0  0  0
 21 22  2  0  0  0  0
 21 20  1  0  0  0  0
 22 23  1  0  0  0  0
 24 25  2  0  0  0  0
 25 22  1  0  0  0  0
 26 24  1  0  0  0  0
 27 18  1  0  0  0  0
 27 19  1  0  0  0  0
 28 27  2  0  0  0  0
M  END
> <ID>
SCHEMBL21164670

> <InChIKey>
YZBQFTLELRARSJ-GFCCVEGCSA-N

> <MW>
412.389

> <Series_Name>
Series_10

$$$$
SCHEMBL21164671
  Mrv1719007221900532D 0   0.00000     0.00000     0

 29 31  0  0  1  0              1 V2000 
    1.2380   -2.6652    0.0000 C   0  0  0  0  0  0  0  0  0  0  0  0
    1.9581   -3.0728    0.0000 C   0  0  0  0  0  0  0  0  0  0  0  0
    0.7388   -2.8870    0.0000 C   0  0  0  0  0  0  0  0  0  0  0  0
    0.4174   -3.3286    0.0000 F   0  0  0  0  0  0  0  0  0  0  0  0
    0.9605   -3.3862    0.0000 F   0  0  0  0  0  0  0  0  0  0  0  0
    0.2970   -2.5657    0.0000 F   0  0  0  0  0  0  0  0  0  0  0  0
    1.2454   -1.8315    0.0000 C   0  0  0  0  0  0  0  0  0  0  0  0
    1.9462   -1.4277    0.0000 C   0  0  0  0  0  0  0  0  0  0  0  0
    2.6659   -1.8406    0.0000 C   0  0  0  0  0  0  0  0  0  0  0  0
    2.6644   -2.6702    0.0000 C   0  0  0  0  0  0  0  0  0  0  0  0
    4.0845   -2.6488    0.0000 N   0  0  0  0  0  0  0  0  0  0  0  0
    3.3780   -3.0810    0.0000 C   0  0  0  0  0  0  0  0  0  0  0  0
    1.9491   -3.8926    0.0000 C   0  0  0  0  0  0  0  0  0  0  0  0
    4.8058   -3.0794    0.0000 C   0  0  0  0  0  0  0  0  0  0  0  0
    5.5218   -2.6653    0.0000 C   0  0  2  0  0  0  0  0  0  0  0  0
    4.1047   -1.8312    0.0000 C   0  0  0  0  0  0  0  0  0  0  0  0
    4.8053   -1.4266    0.0000 C   0  0  0  0  0  0  0  0  0  0  0  0
    5.5202   -1.8318    0.0000 N   0  0  0  0  0  0  0  0  0  0  0  0
    6.9436   -1.8318    0.0000 O   0  0  0  0  0  0  0  0  0  0  0  0
    7.6654   -1.4322    0.0000 C   0  0  0  0  0  0  0  0  0  0  0  0
    7.6756   -0.6034    0.0000 C   0  0  0  0  0  0  0  0  0  0  0  0
    8.3794   -0.1733    0.0000 N   0  0  0  0  0  0  0  0  0  0  0  0
    8.3811   -1.8350    0.0000 C   0  0  0  0  0  0  0  0  0  0  0  0
    9.1003   -1.4290    0.0000 C   0  0  0  0  0  0  0  0  0  0  0  0
    9.1019   -0.6056    0.0000 C   0  0  0  0  0  0  0  0  0  0  0  0
    9.9265   -1.8318    0.0000 N   0  0  0  0  0  0  0  0  0  0  0  0
    6.1918   -1.4422    0.0000 C   0  0  0  0  0  0  0  0  0  0  0  0
    6.2257   -0.5941    0.0000 O   0  0  0  0  0  0  0  0  0  0  0  0
    6.2967   -3.1057    0.0000 C   0  0  0  0  0  0  0  0  0  0  0  0
  1  2  1  0  0  0  0
  1  7  2  0  0  0  0
  2 10  2  0  0  0  0
  3  4  1  0  0  0  0
  3  5  1  0  0  0  0
  3  6  1  0  0  0  0
  3  1  1  0  0  0  0
  7  8  1  0  0  0  0
  8  9  2  0  0  0  0
 10  9  1  0  0  0  0
 10 12  1  0  0  0  0
 11 12  1  0  0  0  0
 11 14  1  0  0  0  0
 11 16  1  0  0  0  0
 13  2  1  0  0  0  0
 15 14  1  0  0  0  0
 15 29  1  6  0  0  0
 15 18  1  0  0  0  0
 16 17  1  0  0  0  0
 17 18  1  0  0  0  0
 18 27  1  0  0  0  0
 19 20  1  0  0  0  0
 19 27  1  0  0  0  0
 20 21  2  0  0  0  0
 20 23  1  0  0  0  0
 21 22  1  0  0  0  0
 22 25  2  0  0  0  0
 23 24  2  0  0  0  0
 24 26  1  0  0  0  0
 25 24  1  0  0  0  0
 27 28  2  0  0  0  0
M  END
> <ID>
SCHEMBL21164671

> <InChIKey>
CGRFFWTWCAHSCL-CYBMUJFWSA-N

> <MW>
408.425

> <Series_Name>
Series_10

$$$$
SCHEMBL21164672
  Mrv1719007221900532D 0   0.00000     0.00000     0

 32 34  0  0  1  0              1 V2000 
    1.2343   -2.6650    0.0000 C   0  0  0  0  0  0  0  0  0  0  0  0
    1.9500   -3.0778    0.0000 C   0  0  0  0  0  0  0  0  0  0  0  0
    0.7336   -2.8841    0.0000 C   0  0  0  0  0  0  0  0  0  0  0  0
    0.4096   -3.3241    0.0000 F   0  0  0  0  0  0  0  0  0  0  0  0
    0.9527   -3.3847    0.0000 F   0  0  0  0  0  0  0  0  0  0  0  0
    0.2937   -2.5601    0.0000 F   0  0  0  0  0  0  0  0  0  0  0  0
    1.2365   -1.8345    0.0000 C   0  0  0  0  0  0  0  0  0  0  0  0
    1.9468   -1.4293    0.0000 C   0  0  0  0  0  0  0  0  0  0  0  0
    2.6695   -1.8451    0.0000 C   0  0  0  0  0  0  0  0  0  0  0  0
    2.6677   -2.6679    0.0000 C   0  0  0  0  0  0  0  0  0  0  0  0
    3.3797   -3.0823    0.0000 C   0  0  0  0  0  0  0  0  0  0  0  0
    4.0935   -2.6547    0.0000 N   0  0  0  0  0  0  0  0  0  0  0  0
    1.9534   -3.9013    0.0000 C   0  0  0  0  0  0  0  0  0  0  0  0
    5.5201   -1.8235    0.0000 N   0  0  0  0  0  0  0  0  0  0  0  0
    5.5260   -2.6655    0.0000 C   0  0  1  0  0  0  0  0  0  0  0  0
    4.8078   -3.0823    0.0000 C   0  0  0  0  0  0  0  0  0  0  0  0
    7.6877   -1.4257    0.0000 C   0  0  0  0  0  0  0  0  0  0  0  0
    8.3913   -1.8397    0.0000 C   0  0  0  0  0  0  0  0  0  0  0  0
    6.9467   -1.8235    0.0000 O   0  0  0  0  0  0  0  0  0  0  0  0
    7.6902   -0.5949    0.0000 C   0  0  0  0  0  0  0  0  0  0  0  0
    8.3857   -0.1736    0.0000 N   0  0  0  0  0  0  0  0  0  0  0  0
    9.1068   -1.4237    0.0000 C   0  0  0  0  0  0  0  0  0  0  0  0
    9.1091   -0.5973    0.0000 C   0  0  0  0  0  0  0  0  0  0  0  0
    9.7715   -1.8107    0.0000 C   0  0  0  0  0  0  0  0  0  0  0  0
   10.5317   -1.4142    0.0000 O   0  0  0  0  0  0  0  0  0  0  0  0
    9.9486   -2.6547    0.0000 N   0  0  0  0  0  0  0  0  0  0  0  0
    8.3914   -2.6609    0.0000 C   0  0  0  0  0  0  0  0  0  0  0  0
    4.8106   -1.4359    0.0000 C   0  0  0  0  0  0  0  0  0  0  0  0
    4.1039   -1.8358    0.0000 C   0  0  0  0  0  0  0  0  0  0  0  0
    6.2474   -1.4408    0.0000 C   0  0  0  0  0  0  0  0  0  0  0  0
    6.2272   -0.5830    0.0000 O   0  0  0  0  0  0  0  0  0  0  0  0
    6.3036   -3.1074    0.0000 C   0  0  0  0  0  0  0  0  0  0  0  0
  1  2  1  0  0  0  0
  1  7  2  0  0  0  0
  2 10  2  0  0  0  0
  3  4  1  0  0  0  0
  3  5  1  0  0  0  0
  3  6  1  0  0  0  0
  3  1  1  0  0  0  0
  7  8  1  0  0  0  0
  8  9  2  0  0  0  0
 10  9  1  0  0  0  0
 10 11  1  0  0  0  0
 11 12  1  0  0  0  0
 12 29  1  0  0  0  0
 13  2  1  0  0  0  0
 15 14  1  0  0  0  0
 14 28  1  0  0  0  0
 15 16  1  0  0  0  0
 15 32  1  6  0  0  0
 16 12  1  0  0  0  0
 17 18  1  0  0  0  0
 17 20  2  0  0  0  0
 18 22  2  0  0  0  0
 19 17  1  0  0  0  0
 20 21  1  0  0  0  0
 21 23  2  0  0  0  0
 22 24  1  0  0  0  0
 23 22  1  0  0  0  0
 24 25  2  0  0  0  0
 26 24  1  0  0  0  0
 27 18  1  0  0  0  0
 28 29  1  0  0  0  0
 30 14  1  0  0  0  0
 30 19  1  0  0  0  0
 31 30  2  0  0  0  0
M  END
> <ID>
SCHEMBL21164672

> <InChIKey>
MVWBYQLFFWMSGA-CYBMUJFWSA-N

> <MW>
450.462

> <Series_Name>
Series_10

$$$$
SCHEMBL21164674
  Mrv1719007221900532D 0   0.00000     0.00000     0

 29 31  0  0  1  0              1 V2000 
    1.2258   -3.4762    0.0000 C   0  0  0  0  0  0  0  0  0  0  0  0
    0.7263   -3.6959    0.0000 C   0  0  0  0  0  0  0  0  0  0  0  0
    0.4037   -4.1360    0.0000 F   0  0  0  0  0  0  0  0  0  0  0  0
    0.9461   -4.1954    0.0000 F   0  0  0  0  0  0  0  0  0  0  0  0
    0.2863   -3.3733    0.0000 F   0  0  0  0  0  0  0  0  0  0  0  0
    1.2238   -2.6647    0.0000 C   0  0  0  0  0  0  0  0  0  0  0  0
    1.9358   -2.2430    0.0000 C   0  0  0  0  0  0  0  0  0  0  0  0
    1.9236   -1.4057    0.0000 F   0  0  0  0  0  0  0  0  0  0  0  0
    2.6557   -3.4709    0.0000 C   0  0  0  0  0  0  0  0  0  0  0  0
    2.6561   -2.6623    0.0000 C   0  0  0  0  0  0  0  0  0  0  0  0
    3.3523   -3.8854    0.0000 C   0  0  0  0  0  0  0  0  0  0  0  0
    4.0691   -3.4649    0.0000 N   0  0  0  0  0  0  0  0  0  0  0  0
    1.9418   -3.8861    0.0000 C   0  0  0  0  0  0  0  0  0  0  0  0
    5.5008   -3.4700    0.0000 C   0  0  1  0  0  0  0  0  0  0  0  0
    5.4994   -2.6387    0.0000 N   0  0  0  0  0  0  0  0  0  0  0  0
    4.7867   -3.8903    0.0000 C   0  0  0  0  0  0  0  0  0  0  0  0
    4.0769   -2.6504    0.0000 C   0  0  0  0  0  0  0  0  0  0  0  0
    4.7897   -2.2500    0.0000 C   0  0  0  0  0  0  0  0  0  0  0  0
    6.9050   -2.6387    0.0000 O   0  0  0  0  0  0  0  0  0  0  0  0
    7.6360   -2.2444    0.0000 C   0  0  0  0  0  0  0  0  0  0  0  0
    7.6409   -1.4165    0.0000 C   0  0  0  0  0  0  0  0  0  0  0  0
    8.3593   -1.0106    0.0000 C   0  0  0  0  0  0  0  0  0  0  0  0
    8.3354   -0.1726    0.0000 F   0  0  0  0  0  0  0  0  0  0  0  0
    9.0636   -1.4287    0.0000 C   0  0  0  0  0  0  0  0  0  0  0  0
    9.0505   -2.2318    0.0000 N   0  0  0  0  0  0  0  0  0  0  0  0
    8.3431   -2.6557    0.0000 C   0  0  0  0  0  0  0  0  0  0  0  0
    6.1819   -2.2659    0.0000 C   0  0  0  0  0  0  0  0  0  0  0  0
    6.2022   -1.4057    0.0000 O   0  0  0  0  0  0  0  0  0  0  0  0
    6.2690   -3.9172    0.0000 C   0  0  0  0  0  0  0  0  0  0  0  0
  1  2  1  0  0  0  0
  1 13  1  0  0  0  0
  2  3  1  0  0  0  0
  2  4  1  0  0  0  0
  2  5  1  0  0  0  0
  6  1  2  0  0  0  0
  6  7  1  0  0  0  0
  7 10  2  0  0  0  0
  8  7  1  0  0  0  0
  9 10  1  0  0  0  0
  9 11  1  0  0  0  0
 11 12  1  0  0  0  0
 12 17  1  0  0  0  0
 13  9  2  0  0  0  0
 14 15  1  0  0  0  0
 14 29  1  6  0  0  0
 14 16  1  0  0  0  0
 15 18  1  0  0  0  0
 15 27  1  0  0  0  0
 16 12  1  0  0  0  0
 17 18  1  0  0  0  0
 19 20  1  0  0  0  0
 19 27  1  0  0  0  0
 20 26  2  0  0  0  0
 21 22  2  0  0  0  0
 21 20  1  0  0  0  0
 22 23  1  0  0  0  0
 24 22  1  0  0  0  0
 25 24  2  0  0  0  0
 26 25  1  0  0  0  0
 27 28  2  0  0  0  0
M  END
> <ID>
SCHEMBL21164674

> <InChIKey>
UUGZOSLFXVAAOE-GFCCVEGCSA-N

> <MW>
415.364

> <Series_Name>
Series_10

$$$$
SCHEMBL21164683
  Mrv1719007221900582D 0   0.00000     0.00000     0

 28 30  0  0  1  0              1 V2000 
    0.5079   -4.3106    0.0000 C   0  0  0  0  0  0  0  0  0  0  0  0
    1.2270   -3.9089    0.0000 C   0  0  0  0  0  0  0  0  0  0  0  0
    1.2305   -3.0755    0.0000 C   0  0  0  0  0  0  0  0  0  0  0  0
    1.9483   -2.6670    0.0000 C   0  0  0  0  0  0  0  0  0  0  0  0
    1.9323   -1.8333    0.0000 F   0  0  0  0  0  0  0  0  0  0  0  0
    2.6540   -3.9063    0.0000 C   0  0  0  0  0  0  0  0  0  0  0  0
    2.6655   -3.0852    0.0000 C   0  0  0  0  0  0  0  0  0  0  0  0
    3.3730   -4.3156    0.0000 C   0  0  0  0  0  0  0  0  0  0  0  0
    4.0877   -3.8895    0.0000 N   0  0  0  0  0  0  0  0  0  0  0  0
    1.9442   -4.3167    0.0000 C   0  0  0  0  0  0  0  0  0  0  0  0
    4.8035   -4.3206    0.0000 C   0  0  0  0  0  0  0  0  0  0  0  0
    5.5162   -3.9059    0.0000 C   0  0  2  0  0  0  0  0  0  0  0  0
    4.0917   -3.0755    0.0000 C   0  0  0  0  0  0  0  0  0  0  0  0
    4.7993   -2.6685    0.0000 C   0  0  0  0  0  0  0  0  0  0  0  0
    5.5121   -3.0719    0.0000 N   0  0  0  0  0  0  0  0  0  0  0  0
    6.9367   -3.0719    0.0000 O   0  0  0  0  0  0  0  0  0  0  0  0
    7.6681   -2.6656    0.0000 C   0  0  0  0  0  0  0  0  0  0  0  0
    7.6775   -1.8357    0.0000 C   0  0  0  0  0  0  0  0  0  0  0  0
    7.6551   -0.1734    0.0000 O   0  0  0  0  0  0  0  0  0  0  0  0
    8.4058   -0.5922    0.0000 C   0  0  0  0  0  0  0  0  0  0  0  0
    9.2158   -0.1734    0.0000 N   0  0  0  0  0  0  0  0  0  0  0  0
    8.3845   -1.4274    0.0000 C   0  0  0  0  0  0  0  0  0  0  0  0
    9.0928   -1.8440    0.0000 C   0  0  0  0  0  0  0  0  0  0  0  0
    9.0920   -2.6508    0.0000 N   0  0  0  0  0  0  0  0  0  0  0  0
    8.3745   -3.0791    0.0000 C   0  0  0  0  0  0  0  0  0  0  0  0
    6.2392   -2.6775    0.0000 C   0  0  0  0  0  0  0  0  0  0  0  0
    6.2182   -1.8333    0.0000 O   0  0  0  0  0  0  0  0  0  0  0  0
    6.2931   -4.3472    0.0000 C   0  0  0  0  0  0  0  0  0  0  0  0
  1  2  1  0  0  0  0
  2  3  2  0  0  0  0
  2 10  1  0  0  0  0
  3  4  1  0  0  0  0
  4  7  2  0  0  0  0
  5  4  1  0  0  0  0
  6  7  1  0  0  0  0
  6  8  1  0  0  0  0
  8  9  1  0  0  0  0
  9 13  1  0  0  0  0
 10  6  2  0  0  0  0
 12 11  1  0  0  0  0
 11  9  1  0  0  0  0
 12 28  1  6  0  0  0
 12 15  1  0  0  0  0
 13 14  1  0  0  0  0
 15 14  1  0  0  0  0
 16 17  1  0  0  0  0
 17 25  2  0  0  0  0
 18 17  1  0  0  0  0
 18 22  2  0  0  0  0
 19 20  2  0  0  0  0
 20 21  1  0  0  0  0
 22 20  1  0  0  0  0
 22 23  1  0  0  0  0
 24 23  2  0  0  0  0
 25 24  1  0  0  0  0
 26 15  1  0  0  0  0
 26 16  1  0  0  0  0
 27 26  2  0  0  0  0
M  END
> <ID>
SCHEMBL21164683

> <InChIKey>
ZFUCGTDIZQMDAJ-CQSZACIVSA-N

> <MW>
386.427

> <Series_Name>
Series_10

$$$$
SCHEMBL21164687
  Mrv1719007221900592D 0   0.00000     0.00000     0

 27 29  0  0  1  0              1 V2000 
    0.5081   -3.0735    0.0000 C   0  0  0  0  0  0  0  0  0  0  0  0
    1.2276   -2.6715    0.0000 C   0  0  0  0  0  0  0  0  0  0  0  0
    1.2323   -1.8382    0.0000 C   0  0  0  0  0  0  0  0  0  0  0  0
    2.6553   -2.6689    0.0000 C   0  0  0  0  0  0  0  0  0  0  0  0
    2.6669   -1.8473    0.0000 C   0  0  0  0  0  0  0  0  0  0  0  0
    3.3747   -3.0785    0.0000 C   0  0  0  0  0  0  0  0  0  0  0  0
    4.0897   -2.6521    0.0000 N   0  0  0  0  0  0  0  0  0  0  0  0
    1.9451   -3.0796    0.0000 C   0  0  0  0  0  0  0  0  0  0  0  0
    1.9461   -1.4330    0.0000 C   0  0  0  0  0  0  0  0  0  0  0  0
    4.8059   -3.0835    0.0000 C   0  0  0  0  0  0  0  0  0  0  0  0
    5.5190   -2.6686    0.0000 C   0  0  2  0  0  0  0  0  0  0  0  0
    4.0938   -1.8378    0.0000 C   0  0  0  0  0  0  0  0  0  0  0  0
    4.8017   -1.4305    0.0000 C   0  0  0  0  0  0  0  0  0  0  0  0
    5.5149   -1.8342    0.0000 N   0  0  0  0  0  0  0  0  0  0  0  0
    9.0955   -1.4303    0.0000 C   0  0  0  0  0  0  0  0  0  0  0  0
    9.7777   -1.8169    0.0000 C   0  0  0  0  0  0  0  0  0  0  0  0
    7.6720   -1.4279    0.0000 C   0  0  0  0  0  0  0  0  0  0  0  0
    8.3829   -1.8391    0.0000 C   0  0  0  0  0  0  0  0  0  0  0  0
    6.9402   -1.8342    0.0000 O   0  0  0  0  0  0  0  0  0  0  0  0
    7.6791   -0.5940    0.0000 C   0  0  0  0  0  0  0  0  0  0  0  0
    8.3778   -0.1735    0.0000 N   0  0  0  0  0  0  0  0  0  0  0  0
    9.0972   -0.6050    0.0000 C   0  0  0  0  0  0  0  0  0  0  0  0
   10.5218   -1.4128    0.0000 O   0  0  0  0  0  0  0  0  0  0  0  0
    9.9393   -2.6521    0.0000 N   0  0  0  0  0  0  0  0  0  0  0  0
    6.2423   -1.4395    0.0000 C   0  0  0  0  0  0  0  0  0  0  0  0
    6.2213   -0.5949    0.0000 O   0  0  0  0  0  0  0  0  0  0  0  0
    6.2963   -3.1101    0.0000 C   0  0  0  0  0  0  0  0  0  0  0  0
  1  2  1  0  0  0  0
  2  3  1  0  0  0  0
  2  8  2  0  0  0  0
  3  9  2  0  0  0  0
  4  5  2  0  0  0  0
  6  4  1  0  0  0  0
  6  7  1  0  0  0  0
  7 12  1  0  0  0  0
  8  4  1  0  0  0  0
  9  5  1  0  0  0  0
 11 10  1  0  0  0  0
 10  7  1  0  0  0  0
 11 27  1  6  0  0  0
 11 14  1  0  0  0  0
 12 13  1  0  0  0  0
 14 13  1  0  0  0  0
 15 16  1  0  0  0  0
 16 23  2  0  0  0  0
 17 18  1  0  0  0  0
 17 20  2  0  0  0  0
 18 15  2  0  0  0  0
 19 17  1  0  0  0  0
 20 21  1  0  0  0  0
 21 22  2  0  0  0  0
 22 15  1  0  0  0  0
 24 16  1  0  0  0  0
 25 14  1  0  0  0  0
 25 19  1  0  0  0  0
 26 25  2  0  0  0  0
M  END
> <ID>
SCHEMBL21164687

> <InChIKey>
BJYBYLIXYYVBNS-OAHLLOKOSA-N

> <MW>
368.437

> <Series_Name>
Series_10

$$$$
SCHEMBL21164688
  Mrv1719007221900592D 0   0.00000     0.00000     0

 30 32  0  0  0  0              1 V2000 
    6.1815   -3.0099    0.0000 C   0  0  0  0  0  0  0  0  0  0  0  0
    6.1815   -0.5411    0.0000 O   0  0  0  0  0  0  0  0  0  0  0  0
    9.9874   -2.6555    0.0000 N   0  0  0  0  0  0  0  0  0  0  0  0
    5.4477   -2.6285    0.0000 C   0  0  2  0  0  0  0  0  0  0  0  0
    9.0670   -0.5473    0.0000 C   0  0  0  0  0  0  0  0  0  0  0  0
    9.0670   -1.3598    0.0000 C   0  0  0  0  0  0  0  0  0  0  0  0
    7.6367   -0.5348    0.0000 C   0  0  0  0  0  0  0  0  0  0  0  0
    7.6367   -1.3598    0.0000 C   0  0  0  0  0  0  0  0  0  0  0  0
    6.2354   -1.3806    0.0000 C   0  0  0  0  0  0  0  0  0  0  0  0
    2.6036   -2.6036    0.0000 C   0  0  0  0  0  0  0  0  0  0  0  0
    2.6119   -1.7910    0.0000 C   0  0  0  0  0  0  0  0  0  0  0  0
    1.8905   -1.3681    0.0000 C   0  0  0  0  0  0  0  0  0  0  0  0
    1.1691   -1.7786    0.0000 C   0  0  0  0  0  0  0  0  0  0  0  0
    1.1691   -2.6036    0.0000 C   0  0  0  0  0  0  0  0  0  0  0  0
    4.7512   -1.3681    0.0000 C   0  0  0  0  0  0  0  0  0  0  0  0
    4.0547   -1.7662    0.0000 C   0  0  0  0  0  0  0  0  0  0  0  0
    8.3581   -1.7786    0.0000 C   0  0  0  0  0  0  0  0  0  0  0  0
    4.7636   -3.0223    0.0000 C   0  0  0  0  0  0  0  0  0  0  0  0
    1.8905   -3.0223    0.0000 C   0  0  0  0  0  0  0  0  0  0  0  0
    3.3084   -3.0223    0.0000 C   0  0  0  0  0  0  0  0  0  0  0  0
    9.7552   -1.7537    0.0000 C   0  0  0  0  0  0  0  0  0  0  0  0
   10.4973   -1.3619    0.0000 O   0  0  0  0  0  0  0  0  0  0  0  0
    4.0485   -2.6057    0.0000 N   0  0  0  0  0  0  0  0  0  0  0  0
    6.9029   -1.7848    0.0000 O   0  0  0  0  0  0  0  0  0  0  0  0
    5.4788   -1.7848    0.0000 N   0  0  0  0  0  0  0  0  0  0  0  0
    8.3519   -0.1182    0.0000 N   0  0  0  0  0  0  0  0  0  0  0  0
    0.5442   -2.9635    0.0000 C   0  0  0  0  0  0  0  0  0  0  0  0
    0.5434   -3.6847    0.0000 F   0  0  0  0  0  0  0  0  0  0  0  0
   -0.0800   -2.6023    0.0000 F   0  0  0  0  0  0  0  0  0  0  0  0
   -0.0808   -3.3234    0.0000 F   0  0  0  0  0  0  0  0  0  0  0  0
  5  6  1  0  0  0  0
  7  8  2  0  0  0  0
  2  9  2  0  0  0  0
 10 11  2  0  0  0  0
 11 12  1  0  0  0  0
 12 13  2  0  0  0  0
 13 14  1  0  0  0  0
 15 16  1  0  0  0  0
  6 17  2  0  0  0  0
  8 17  1  0  0  0  0
  4 18  1  0  0  0  0
 10 19  1  0  0  0  0
 14 19  2  0  0  0  0
 10 20  1  0  0  0  0
  6 21  1  0  0  0  0
  3 21  1  0  0  0  0
 21 22  2  0  0  0  0
 16 23  1  0  0  0  0
 18 23  1  0  0  0  0
 20 23  1  0  0  0  0
  8 24  1  0  0  0  0
  9 24  1  0  0  0  0
  4 25  1  0  0  0  0
  9 25  1  0  0  0  0
 15 25  1  0  0  0  0
  5 26  2  0  0  0  0
  7 26  1  0  0  0  0
  4  1  1  6  0  0  0
 14 27  1  0  0  0  0
 27 28  1  0  0  0  0
 27 29  1  0  0  0  0
 27 30  1  0  0  0  0
M  END
> <ID>
SCHEMBL21164688

> <InChIKey>
VSSLWXDZHLJIIW-CYBMUJFWSA-N

> <MW>
422.408

> <Series_Name>
Series_10

$$$$
SCHEMBL21164737
  Mrv1719007221901512D 0   0.00000     0.00000     0

 26 28  0  0  1  0              1 V2000 
    0.5069   -3.8946    0.0000 C   0  0  0  0  0  0  0  0  0  0  0  0
    1.2318   -3.4891    0.0000 C   0  0  0  0  0  0  0  0  0  0  0  0
    1.2499   -2.6567    0.0000 C   0  0  0  0  0  0  0  0  0  0  0  0
    1.9419   -2.2538    0.0000 C   0  0  0  0  0  0  0  0  0  0  0  0
    1.9288   -1.4095    0.0000 F   0  0  0  0  0  0  0  0  0  0  0  0
    2.6667   -3.4882    0.0000 C   0  0  0  0  0  0  0  0  0  0  0  0
    3.3754   -3.8993    0.0000 C   0  0  0  0  0  0  0  0  0  0  0  0
    4.0801   -3.4743    0.0000 N   0  0  0  0  0  0  0  0  0  0  0  0
    1.9451   -3.9027    0.0000 C   0  0  0  0  0  0  0  0  0  0  0  0
    2.6565   -2.6660    0.0000 C   0  0  0  0  0  0  0  0  0  0  0  0
    4.7994   -3.9041    0.0000 C   0  0  0  0  0  0  0  0  0  0  0  0
    5.5143   -2.6459    0.0000 N   0  0  0  0  0  0  0  0  0  0  0  0
    5.5204   -3.4893    0.0000 C   0  0  2  0  0  0  0  0  0  0  0  0
    4.1003   -2.6551    0.0000 C   0  0  0  0  0  0  0  0  0  0  0  0
    4.8053   -2.2511    0.0000 C   0  0  0  0  0  0  0  0  0  0  0  0
    6.9362   -2.6582    0.0000 O   0  0  0  0  0  0  0  0  0  0  0  0
    7.6564   -2.2538    0.0000 C   0  0  0  0  0  0  0  0  0  0  0  0
    7.6583   -1.4259    0.0000 C   0  0  0  0  0  0  0  0  0  0  0  0
    8.3820   -1.0170    0.0000 C   0  0  0  0  0  0  0  0  0  0  0  0
    8.3580   -0.1731    0.0000 F   0  0  0  0  0  0  0  0  0  0  0  0
    9.0883   -1.4325    0.0000 C   0  0  0  0  0  0  0  0  0  0  0  0
    9.0875   -2.2379    0.0000 N   0  0  0  0  0  0  0  0  0  0  0  0
    8.3703   -2.6635    0.0000 C   0  0  0  0  0  0  0  0  0  0  0  0
    6.1758   -2.2778    0.0000 C   0  0  0  0  0  0  0  0  0  0  0  0
    6.2191   -1.4219    0.0000 O   0  0  0  0  0  0  0  0  0  0  0  0
    6.2907   -3.9271    0.0000 C   0  0  0  0  0  0  0  0  0  0  0  0
  1  2  1  0  0  0  0
  2  3  2  0  0  0  0
  3  4  1  0  0  0  0
  4 10  2  0  0  0  0
  5  4  1  0  0  0  0
  6  7  1  0  0  0  0
  7  8  1  0  0  0  0
  8 11  1  0  0  0  0
  8 14  1  0  0  0  0
  9  6  2  0  0  0  0
  9  2  1  0  0  0  0
 10  6  1  0  0  0  0
 13 12  1  0  0  0  0
 12 24  1  0  0  0  0
 13 11  1  0  0  0  0
 13 26  1  6  0  0  0
 14 15  1  0  0  0  0
 15 12  1  0  0  0  0
 16 17  1  0  0  0  0
 16 24  1  0  0  0  0
 17 23  2  0  0  0  0
 18 17  1  0  0  0  0
 18 19  2  0  0  0  0
 19 20  1  0  0  0  0
 19 21  1  0  0  0  0
 22 21  2  0  0  0  0
 23 22  1  0  0  0  0
 24 25  2  0  0  0  0
M  END
> <ID>
SCHEMBL21164737

> <InChIKey>
DSCXLIGQGQQPRB-CQSZACIVSA-N

> <MW>
361.393

> <Series_Name>
Series_10

$$$$
SCHEMBL21164738
  Mrv1719007221901512D 0   0.00000     0.00000     0

 30 32  0  0  1  0              1 V2000 
    1.4866   -2.6628    0.0000 C   0  0  0  0  0  0  0  0  0  0  0  0
    2.2119   -3.0733    0.0000 C   0  0  0  0  0  0  0  0  0  0  0  0
    0.9773   -2.8586    0.0000 O   0  0  0  0  0  0  0  0  0  0  0  0
    0.5530   -2.5155    0.0000 C   0  0  0  0  0  0  0  0  0  0  0  0
    0.0140   -2.4304    0.0000 F   0  0  0  0  0  0  0  0  0  0  0  0
    0.2099   -2.9397    0.0000 F   0  0  0  0  0  0  0  0  0  0  0  0
    0.6381   -1.9765    0.0000 F   0  0  0  0  0  0  0  0  0  0  0  0
    2.2026   -1.4239    0.0000 C   0  0  0  0  0  0  0  0  0  0  0  0
    2.9165   -1.8314    0.0000 C   0  0  0  0  0  0  0  0  0  0  0  0
    2.9114   -2.6531    0.0000 C   0  0  0  0  0  0  0  0  0  0  0  0
    3.6262   -3.0694    0.0000 C   0  0  0  0  0  0  0  0  0  0  0  0
    4.3491   -2.6516    0.0000 N   0  0  0  0  0  0  0  0  0  0  0  0
    2.2112   -3.8844    0.0000 C   0  0  0  0  0  0  0  0  0  0  0  0
    1.5008   -1.8326    0.0000 C   0  0  0  0  0  0  0  0  0  0  0  0
    5.0625   -3.0763    0.0000 C   0  0  0  0  0  0  0  0  0  0  0  0
    5.7745   -2.6596    0.0000 C   0  0  2  0  0  0  0  0  0  0  0  0
    5.0674   -1.4220    0.0000 C   0  0  0  0  0  0  0  0  0  0  0  0
    5.7740   -1.8214    0.0000 N   0  0  0  0  0  0  0  0  0  0  0  0
    4.3630   -1.8322    0.0000 C   0  0  0  0  0  0  0  0  0  0  0  0
    7.1989   -1.8214    0.0000 O   0  0  0  0  0  0  0  0  0  0  0  0
    7.9422   -1.4293    0.0000 C   0  0  0  0  0  0  0  0  0  0  0  0
    7.9440   -0.5920    0.0000 C   0  0  0  0  0  0  0  0  0  0  0  0
    8.6363   -0.1735    0.0000 N   0  0  0  0  0  0  0  0  0  0  0  0
    8.6417   -1.8340    0.0000 C   0  0  0  0  0  0  0  0  0  0  0  0
    9.3670   -1.4238    0.0000 C   0  0  0  0  0  0  0  0  0  0  0  0
    9.3631   -0.5981    0.0000 C   0  0  0  0  0  0  0  0  0  0  0  0
   10.1975   -1.8214    0.0000 N   0  0  0  0  0  0  0  0  0  0  0  0
    6.5562   -1.4499    0.0000 C   0  0  0  0  0  0  0  0  0  0  0  0
    6.4803   -0.5824    0.0000 O   0  0  0  0  0  0  0  0  0  0  0  0
    6.5561   -3.1015    0.0000 C   0  0  0  0  0  0  0  0  0  0  0  0
  1  2  1  0  0  0  0
  1 14  2  0  0  0  0
  2 10  2  0  0  0  0
  3  4  1  0  0  0  0
  3  1  1  0  0  0  0
  4  5  1  0  0  0  0
  4  6  1  0  0  0  0
  4  7  1  0  0  0  0
  8  9  2  0  0  0  0
 10  9  1  0  0  0  0
 10 11  1  0  0  0  0
 11 12  1  0  0  0  0
 13  2  1  0  0  0  0
 14  8  1  0  0  0  0
 16 15  1  0  0  0  0
 15 12  1  0  0  0  0
 16 30  1  6  0  0  0
 16 18  1  0  0  0  0
 17 18  1  0  0  0  0
 17 19  1  0  0  0  0
 19 12  1  0  0  0  0
 20 21  1  0  0  0  0
 21 22  2  0  0  0  0
 21 24  1  0  0  0  0
 22 23  1  0  0  0  0
 23 26  2  0  0  0  0
 24 25  2  0  0  0  0
 25 27  1  0  0  0  0
 26 25  1  0  0  0  0
 28 18  1  0  0  0  0
 28 20  1  0  0  0  0
 29 28  2  0  0  0  0
M  END
> <ID>
SCHEMBL21164738

> <InChIKey>
CARAXEZWTGATDO-CYBMUJFWSA-N

> <MW>
424.424

> <Series_Name>
Series_10

$$$$
SCHEMBL21164739
  Mrv1719007221901512D 0   0.00000     0.00000     0

 31 33  0  0  1  0              1 V2000 
    1.2292   -2.6677    0.0000 C   0  0  0  0  0  0  0  0  0  0  0  0
    1.9560   -3.0836    0.0000 C   0  0  0  0  0  0  0  0  0  0  0  0
    0.7283   -2.8913    0.0000 C   0  0  0  0  0  0  0  0  0  0  0  0
    0.4063   -3.3354    0.0000 F   0  0  0  0  0  0  0  0  0  0  0  0
    0.9519   -3.3922    0.0000 F   0  0  0  0  0  0  0  0  0  0  0  0
    0.2843   -2.5693    0.0000 F   0  0  0  0  0  0  0  0  0  0  0  0
    1.2388   -1.8362    0.0000 C   0  0  0  0  0  0  0  0  0  0  0  0
    1.9534   -1.4240    0.0000 C   0  0  0  0  0  0  0  0  0  0  0  0
    2.6800   -1.8424    0.0000 C   0  0  0  0  0  0  0  0  0  0  0  0
    2.6787   -2.6710    0.0000 C   0  0  0  0  0  0  0  0  0  0  0  0
    3.3825   -3.0821    0.0000 C   0  0  0  0  0  0  0  0  0  0  0  0
    4.1008   -2.6593    0.0000 N   0  0  0  0  0  0  0  0  0  0  0  0
    1.9568   -3.8957    0.0000 C   0  0  0  0  0  0  0  0  0  0  0  0
    4.8202   -3.0774    0.0000 C   0  0  0  0  0  0  0  0  0  0  0  0
    5.5426   -2.6648    0.0000 C   0  0  2  0  0  0  0  0  0  0  0  0
    5.5423   -1.8267    0.0000 N   0  0  0  0  0  0  0  0  0  0  0  0
    7.6976   -1.4243    0.0000 C   0  0  0  0  0  0  0  0  0  0  0  0
    8.4224   -1.8385    0.0000 C   0  0  0  0  0  0  0  0  0  0  0  0
    6.9589   -1.8267    0.0000 O   0  0  0  0  0  0  0  0  0  0  0  0
    7.7037   -0.5949    0.0000 C   0  0  0  0  0  0  0  0  0  0  0  0
    8.4004   -0.1740    0.0000 N   0  0  0  0  0  0  0  0  0  0  0  0
    9.1253   -1.4139    0.0000 C   0  0  0  0  0  0  0  0  0  0  0  0
    9.1258   -0.5931    0.0000 C   0  0  0  0  0  0  0  0  0  0  0  0
    9.6170   -1.6571    0.0000 C   0  0  0  0  0  0  0  0  0  0  0  0
   10.1087   -1.9003    0.0000 N   0  0  0  0  0  0  0  0  0  0  0  0
    8.4185   -2.6531    0.0000 C   0  0  0  0  0  0  0  0  0  0  0  0
    4.1109   -1.8346    0.0000 C   0  0  0  0  0  0  0  0  0  0  0  0
    4.8229   -1.4234    0.0000 C   0  0  0  0  0  0  0  0  0  0  0  0
    6.3116   -1.4439    0.0000 C   0  0  0  0  0  0  0  0  0  0  0  0
    6.2506   -0.5840    0.0000 O   0  0  0  0  0  0  0  0  0  0  0  0
    6.3174   -3.1124    0.0000 C   0  0  0  0  0  0  0  0  0  0  0  0
  1  2  1  0  0  0  0
  1  7  2  0  0  0  0
  2 10  2  0  0  0  0
  3  4  1  0  0  0  0
  3  5  1  0  0  0  0
  3  6  1  0  0  0  0
  3  1  1  0  0  0  0
  7  8  1  0  0  0  0
  8  9  2  0  0  0  0
 10  9  1  0  0  0  0
 10 11  1  0  0  0  0
 11 12  1  0  0  0  0
 12 14  1  0  0  0  0
 12 27  1  0  0  0  0
 13  2  1  0  0  0  0
 15 14  1  0  0  0  0
 15 16  1  0  0  0  0
 15 31  1  6  0  0  0
 17 18  1  0  0  0  0
 17 20  2  0  0  0  0
 18 22  2  0  0  0  0
 19 17  1  0  0  0  0
 20 21  1  0  0  0  0
 21 23  2  0  0  0  0
 22 24  1  0  0  0  0
 23 22  1  0  0  0  0
 24 25  3  0  0  0  0
 26 18  1  0  0  0  0
 27 28  1  0  0  0  0
 28 16  1  0  0  0  0
 29 16  1  0  0  0  0
 29 19  1  0  0  0  0
 30 29  2  0  0  0  0
M  END
> <ID>
SCHEMBL21164739

> <InChIKey>
MUQFEUNAKWCLBP-CQSZACIVSA-N

> <MW>
432.447

> <Series_Name>
Series_10

$$$$
SCHEMBL21164740
  Mrv1719007221901512D 0   0.00000     0.00000     0

 28 30  0  0  1  0              1 V2000 
    0.2284   -3.0727    0.0000 Cl  0  0  0  0  0  0  0  0  0  0  0  0
    1.0560   -2.6702    0.0000 C   0  0  0  0  0  0  0  0  0  0  0  0
    1.7578   -0.5942    0.0000 F   0  0  0  0  0  0  0  0  0  0  0  0
    1.7703   -1.4317    0.0000 C   0  0  0  0  0  0  0  0  0  0  0  0
    2.4905   -1.8474    0.0000 C   0  0  0  0  0  0  0  0  0  0  0  0
    2.4928   -2.6700    0.0000 C   0  0  0  0  0  0  0  0  0  0  0  0
    3.1951   -3.0766    0.0000 C   0  0  0  0  0  0  0  0  0  0  0  0
    3.9118   -2.6491    0.0000 N   0  0  0  0  0  0  0  0  0  0  0  0
    1.7759   -3.0758    0.0000 C   0  0  0  0  0  0  0  0  0  0  0  0
    1.0662   -1.8417    0.0000 C   0  0  0  0  0  0  0  0  0  0  0  0
    5.3354   -1.8321    0.0000 N   0  0  0  0  0  0  0  0  0  0  0  0
    5.3497   -2.6651    0.0000 C   0  0  1  0  0  0  0  0  0  0  0  0
    4.6283   -3.0809    0.0000 C   0  0  0  0  0  0  0  0  0  0  0  0
    4.6292   -1.4305    0.0000 C   0  0  0  0  0  0  0  0  0  0  0  0
    3.9265   -1.8392    0.0000 C   0  0  0  0  0  0  0  0  0  0  0  0
    8.9128   -1.4311    0.0000 C   0  0  0  0  0  0  0  0  0  0  0  0
    9.6416   -1.8612    0.0000 C   0  0  0  0  0  0  0  0  0  0  0  0
    7.4951   -1.4295    0.0000 C   0  0  0  0  0  0  0  0  0  0  0  0
    8.1990   -1.8418    0.0000 C   0  0  0  0  0  0  0  0  0  0  0  0
    6.7590   -1.8321    0.0000 O   0  0  0  0  0  0  0  0  0  0  0  0
    7.4969   -0.5989    0.0000 C   0  0  0  0  0  0  0  0  0  0  0  0
    8.1950   -0.1733    0.0000 N   0  0  0  0  0  0  0  0  0  0  0  0
    8.9115   -0.6061    0.0000 C   0  0  0  0  0  0  0  0  0  0  0  0
   10.3366   -1.4236    0.0000 O   0  0  0  0  0  0  0  0  0  0  0  0
    9.7547   -2.6615    0.0000 N   0  0  0  0  0  0  0  0  0  0  0  0
    5.9866   -1.4673    0.0000 C   0  0  0  0  0  0  0  0  0  0  0  0
    6.0410   -0.5942    0.0000 O   0  0  0  0  0  0  0  0  0  0  0  0
    6.1182   -3.1082    0.0000 C   0  0  0  0  0  0  0  0  0  0  0  0
  1  2  1  0  0  0  0
  2 10  2  0  0  0  0
  3  4  1  0  0  0  0
  4  5  2  0  0  0  0
  5  6  1  0  0  0  0
  6  7  1  0  0  0  0
  7  8  1  0  0  0  0
  9  6  2  0  0  0  0
  9  2  1  0  0  0  0
 10  4  1  0  0  0  0
 12 11  1  0  0  0  0
 11 26  1  0  0  0  0
 12 28  1  6  0  0  0
 12 13  1  0  0  0  0
 13  8  1  0  0  0  0
 14 11  1  0  0  0  0
 14 15  1  0  0  0  0
 15  8  1  0  0  0  0
 16 17  1  0  0  0  0
 17 24  2  0  0  0  0
 18 19  1  0  0  0  0
 18 21  2  0  0  0  0
 19 16  2  0  0  0  0
 20 18  1  0  0  0  0
 20 26  1  0  0  0  0
 21 22  1  0  0  0  0
 22 23  2  0  0  0  0
 23 16  1  0  0  0  0
 25 17  1  0  0  0  0
 26 27  2  0  0  0  0
M  END
> <ID>
SCHEMBL21164740

> <InChIKey>
SLKCLNFOVDYIHW-GFCCVEGCSA-N

> <MW>
406.84

> <Series_Name>
Series_10

$$$$
SCHEMBL21167892
  Mrv1719007231911592D 0   0.00000     0.00000     0

 37 41  0  0  0  0              1 V2000 
    5.7933   -1.3434    0.0000 O   0  0  0  0  0  0  0  0  0  0  0  0
    0.3893   -4.1064    0.0000 N   0  0  0  0  0  0  0  0  0  0  0  0
    7.3962   -5.5185    0.0000 S   0  0  0  0  0  0  0  0  0  0  0  0
    4.1866   -1.3358    0.0000 C   0  0  0  0  0  0  0  0  0  0  0  0
    3.7858   -0.6564    0.0000 C   0  0  0  0  0  0  0  0  0  0  0  0
    3.4195   -1.3434    0.0000 C   0  0  0  0  0  0  0  0  0  0  0  0
    2.7630   -3.8571    0.0000 C   0  0  0  0  0  0  0  0  0  0  0  0
    6.9916   -3.5873    0.0000 C   0  0  0  0  0  0  0  0  0  0  0  0
    6.3708   -4.0301    0.0000 C   0  0  0  0  0  0  0  0  0  0  0  0
    9.1593   -4.0301    0.0000 C   0  0  0  0  0  0  0  0  0  0  0  0
    8.9201   -4.8239    0.0000 C   0  0  0  0  0  0  0  0  0  0  0  0
    1.4706   -4.1370    0.0000 C   0  0  0  0  0  0  0  0  0  0  0  0
    5.5617   -4.0250    0.0000 C   0  0  0  0  0  0  0  0  0  0  0  0
    2.6867   -4.6712    0.0000 C   0  0  0  0  0  0  0  0  0  0  0  0
    9.4036   -5.5108    0.0000 C   0  0  0  0  0  0  0  0  0  0  0  0
   10.7265   -6.0909    0.0000 C   0  0  0  0  0  0  0  0  0  0  0  0
   11.5559   -6.0757    0.0000 C   0  0  0  0  0  0  0  0  0  0  0  0
   10.5179   -6.9305    0.0000 C   0  0  0  0  0  0  0  0  0  0  0  0
   11.1591   -7.3580    0.0000 C   0  0  0  0  0  0  0  0  0  0  0  0
    5.5464   -4.8239    0.0000 C   0  0  0  0  0  0  0  0  0  0  0  0
    4.9765   -5.4728    0.0000 O   0  0  0  0  0  0  0  0  0  0  0  0
    4.2184   -3.8469    0.0000 C   0  0  0  0  0  0  0  0  0  0  0  0
    4.2210   -4.7017    0.0000 O   0  0  0  0  0  0  0  0  0  0  0  0
    3.4806   -3.4500    0.0000 C   0  0  0  0  0  0  0  0  0  0  0  0
    4.9079   -0.1679    0.0000 O   0  0  0  0  0  0  0  0  0  0  0  0
    4.9002   -0.9363    0.0000 C   0  0  0  0  0  0  0  0  0  0  0  0
    4.8976   -3.4578    0.0000 N   0  0  0  0  0  0  0  0  0  0  0  0
    2.0150   -3.5187    0.0000 N   0  0  0  0  0  0  0  0  0  0  0  0
   12.0063   -6.8695    0.0000 N   0  0  0  0  0  0  0  0  0  0  0  0
    4.2210   -2.1830    0.0000 O   0  0  0  0  0  0  0  0  0  0  0  0
    7.8312   -4.0301    0.0000 N   0  0  0  0  0  0  0  0  0  0  0  0
    8.5181   -3.5492    0.0000 N   0  0  0  0  0  0  0  0  0  0  0  0
   10.3958   -5.4422    0.0000 N   0  0  0  0  0  0  0  0  0  0  0  0
    6.3887   -4.8773    0.0000 N   0  0  0  0  0  0  0  0  0  0  0  0
    3.4881   -2.5951    0.0000 N   0  0  0  0  0  0  0  0  0  0  0  0
    8.0831   -4.8391    0.0000 N   0  0  0  0  0  0  0  0  0  0  0  0
    1.8776   -4.8697    0.0000 S   0  0  0  0  0  0  0  0  0  0  0  0
  4  5  1  0  0  0  0
  5  6  1  0  0  0  0
  4  6  1  0  0  0  0
  8  9  1  0  0  0  0
 10 11  1  0  0  0  0
  2 12  1  0  0  0  0
  9 13  1  0  0  0  0
  7 14  2  0  0  0  0
 11 15  1  0  0  0  0
 16 17  1  0  0  0  0
 16 18  1  0  0  0  0
 18 19  1  0  0  0  0
 13 20  1  0  0  0  0
 20 21  2  0  0  0  0
 22 23  2  0  0  0  0
  7 24  1  0  0  0  0
 22 24  1  0  0  0  0
  1 26  1  0  0  0  0
  4 26  1  0  0  0  0
 25 26  2  0  0  0  0
 22 27  1  0  0  0  0
 13 27  1  0  0  0  0
  7 28  1  0  0  0  0
 12 28  2  0  0  0  0
 17 29  1  0  0  0  0
 19 29  1  0  0  0  0
  4 30  1  0  0  0  0
  8 31  1  0  0  0  0
 10 32  2  0  0  0  0
 31 32  1  0  0  0  0
 15 33  1  0  0  0  0
 16 33  1  0  0  0  0
  3 34  1  0  0  0  0
  9 34  1  0  0  0  0
 20 34  1  0  0  0  0
 24 35  2  0  0  0  0
 30 35  1  0  0  0  0
 11 36  2  0  0  0  0
 31 36  1  0  0  0  0
 12 37  1  0  0  0  0
 14 37  1  0  0  0  0
M  END
> <ID>
SCHEMBL21167892

> <InChIKey>
ZUNWOQIKKYFPNZ-MUXKCCDJSA-N

> <MW>
550.61

> <Series_Name>
Series_14

$$$$
SCHEMBL21167902
  Mrv1719007231912002D 0   0.00000     0.00000     0

 37 40  0  0  0  0              1 V2000 
    5.8067   -1.3533    0.0000 O   0  0  0  0  0  0  0  0  0  0  0  0
   10.8885   -4.3913    0.0000 N   0  0  0  0  0  0  0  0  0  0  0  0
    0.3866   -4.0944    0.0000 N   0  0  0  0  0  0  0  0  0  0  0  0
   10.5295   -5.4684    0.0000 N   0  0  0  0  0  0  0  0  0  0  0  0
    4.1945   -1.3291    0.0000 C   0  0  0  0  0  0  0  0  0  0  0  0
    3.7975   -0.6490    0.0000 C   0  0  0  0  0  0  0  0  0  0  0  0
    3.4247   -1.2566    0.0000 C   0  0  0  0  0  0  0  0  0  0  0  0
    2.7895   -3.8482    0.0000 C   0  0  0  0  0  0  0  0  0  0  0  0
    7.0427   -3.5766    0.0000 C   0  0  0  0  0  0  0  0  0  0  0  0
    6.3845   -4.0323    0.0000 C   0  0  0  0  0  0  0  0  0  0  0  0
    5.5743   -4.0323    0.0000 C   0  0  0  0  0  0  0  0  0  0  0  0
    9.2337   -4.0185    0.0000 C   0  0  0  0  0  0  0  0  0  0  0  0
    1.4684   -4.1289    0.0000 C   0  0  0  0  0  0  0  0  0  0  0  0
   10.0116   -3.7837    0.0000 C   0  0  0  0  0  0  0  0  0  0  0  0
    8.9483   -4.8240    0.0000 C   0  0  0  0  0  0  0  0  0  0  0  0
    2.6928   -4.6675    0.0000 C   0  0  0  0  0  0  0  0  0  0  0  0
    9.4455   -5.5099    0.0000 C   0  0  0  0  0  0  0  0  0  0  0  0
    3.4868   -3.4569    0.0000 C   0  0  0  0  0  0  0  0  0  0  0  0
    4.2118   -4.6951    0.0000 O   0  0  0  0  0  0  0  0  0  0  0  0
    5.5812   -4.8585    0.0000 C   0  0  0  0  0  0  0  0  0  0  0  0
    4.9989   -5.4546    0.0000 O   0  0  0  0  0  0  0  0  0  0  0  0
    4.9264   -0.9425    0.0000 C   0  0  0  0  0  0  0  0  0  0  0  0
    4.9437   -0.1657    0.0000 O   0  0  0  0  0  0  0  0  0  0  0  0
    4.2164   -3.8274    0.0000 C   0  0  0  0  0  0  0  0  0  0  0  0
    7.8712   -4.0323    0.0000 N   0  0  0  0  0  0  0  0  0  0  0  0
    8.5410   -3.5351    0.0000 N   0  0  0  0  0  0  0  0  0  0  0  0
    2.0231   -3.5213    0.0000 N   0  0  0  0  0  0  0  0  0  0  0  0
    4.9472   -3.4444    0.0000 N   0  0  0  0  0  0  0  0  0  0  0  0
    3.4937   -2.5961    0.0000 N   0  0  0  0  0  0  0  0  0  0  0  0
    4.2118   -2.1888    0.0000 O   0  0  0  0  0  0  0  0  0  0  0  0
    8.1198   -4.8263    0.0000 N   0  0  0  0  0  0  0  0  0  0  0  0
    6.4074   -4.8677    0.0000 N   0  0  0  0  0  0  0  0  0  0  0  0
    1.8781   -4.8608    0.0000 S   0  0  0  0  0  0  0  0  0  0  0  0
    7.2827   -4.8605    0.0000 O   0  0  0  0  0  0  0  0  0  0  0  0
    6.8487   -5.3018    0.0000 S   0  0  0  0  0  0  0  0  0  0  0  0
    6.4147   -5.7430    0.0000 O   0  0  0  0  0  0  0  0  0  0  0  0
    7.2899   -5.7358    0.0000 O   0  0  0  0  0  0  0  0  0  0  0  0
  5  6  1  0  0  0  0
  6  7  1  0  0  0  0
  5  7  1  0  0  0  0
  9 10  1  0  0  0  0
 10 11  1  0  0  0  0
  3 13  1  0  0  0  0
  2 14  1  0  0  0  0
 12 14  1  0  0  0  0
 12 15  1  0  0  0  0
  8 16  2  0  0  0  0
  4 17  1  0  0  0  0
 15 17  1  0  0  0  0
  8 18  1  0  0  0  0
 11 20  1  0  0  0  0
 20 21  2  0  0  0  0
  5 22  1  0  0  0  0
  1 22  1  0  0  0  0
 22 23  2  0  0  0  0
 18 24  1  0  0  0  0
 19 24  2  0  0  0  0
  9 25  1  0  0  0  0
 12 26  2  0  0  0  0
 25 26  1  0  0  0  0
  8 27  1  0  0  0  0
 13 27  2  0  0  0  0
 11 28  1  0  0  0  0
 24 28  1  0  0  0  0
 18 29  2  0  0  0  0
  5 30  1  0  0  0  0
 29 30  1  0  0  0  0
 15 31  2  0  0  0  0
 25 31  1  0  0  0  0
 10 32  1  0  0  0  0
 20 32  1  0  0  0  0
 13 33  1  0  0  0  0
 16 33  1  0  0  0  0
 32 35  1  0  0  0  0
 34 35  1  0  0  0  0
 35 36  2  0  0  0  0
 35 37  2  0  0  0  0
M  END
> <ID>
SCHEMBL21167902

> <InChIKey>
HEAOUQYRSAJORN-GATIEOLUSA-N

> <MW>
558.55

> <Series_Name>
Series_14

$$$$
SCHEMBL21167903
  Mrv1719007231912002D 0   0.00000     0.00000     0

 42 45  0  0  0  0              1 V2000 
    4.9452   -0.1688    0.0000 O   0  0  0  0  0  0  0  0  0  0  0  0
    5.8148   -1.4278    0.0000 O   0  0  0  0  0  0  0  0  0  0  0  0
    0.3894   -4.2378    0.0000 N   0  0  0  0  0  0  0  0  0  0  0  0
   14.6539   -6.2821    0.0000 N   0  0  0  0  0  0  0  0  0  0  0  0
    7.7164   -6.1782    0.0000 O   0  0  0  0  0  0  0  0  0  0  0  0
    4.8846   -1.0081    0.0000 C   0  0  0  0  0  0  0  0  0  0  0  0
    3.8030   -0.7269    0.0000 C   0  0  0  0  0  0  0  0  0  0  0  0
    3.4136   -1.4018    0.0000 C   0  0  0  0  0  0  0  0  0  0  0  0
    4.2021   -1.4018    0.0000 C   0  0  0  0  0  0  0  0  0  0  0  0
    3.5045   -3.5478    0.0000 C   0  0  0  0  0  0  0  0  0  0  0  0
    9.1116   -3.6602    0.0000 C   0  0  0  0  0  0  0  0  0  0  0  0
    8.9083   -4.4953    0.0000 C   0  0  0  0  0  0  0  0  0  0  0  0
    2.7776   -3.9804    0.0000 C   0  0  0  0  0  0  0  0  0  0  0  0
    6.8922   -3.5953    0.0000 C   0  0  0  0  0  0  0  0  0  0  0  0
    6.3773   -4.1275    0.0000 C   0  0  0  0  0  0  0  0  0  0  0  0
    5.5509   -4.1275    0.0000 C   0  0  0  0  0  0  0  0  0  0  0  0
    1.4840   -4.2443    0.0000 C   0  0  0  0  0  0  0  0  0  0  0  0
    2.6998   -4.7894    0.0000 C   0  0  0  0  0  0  0  0  0  0  0  0
    9.4232   -5.1399    0.0000 C   0  0  0  0  0  0  0  0  0  0  0  0
   12.1878   -6.0096    0.0000 C   0  0  0  0  0  0  0  0  0  0  0  0
   13.0185   -5.8408    0.0000 C   0  0  0  0  0  0  0  0  0  0  0  0
   13.5637   -6.4249    0.0000 C   0  0  0  0  0  0  0  0  0  0  0  0
    5.5769   -4.9409    0.0000 C   0  0  0  0  0  0  0  0  0  0  0  0
    4.9712   -5.5682    0.0000 O   0  0  0  0  0  0  0  0  0  0  0  0
    4.2183   -3.9588    0.0000 C   0  0  0  0  0  0  0  0  0  0  0  0
    4.2248   -4.8024    0.0000 O   0  0  0  0  0  0  0  0  0  0  0  0
   10.8184   -5.6223    0.0000 C   0  0  0  0  0  0  0  0  0  0  0  0
   10.5913   -6.4379    0.0000 O   0  0  0  0  0  0  0  0  0  0  0  0
    6.3860   -6.1782    0.0000 O   0  0  0  0  0  0  0  0  0  0  0  0
    7.5606   -4.9841    0.0000 O   0  0  0  0  0  0  0  0  0  0  0  0
    2.0313   -3.6278    0.0000 N   0  0  0  0  0  0  0  0  0  0  0  0
   10.1812   -4.9464    0.0000 N   0  0  0  0  0  0  0  0  0  0  0  0
    4.9484   -3.5169    0.0000 N   0  0  0  0  0  0  0  0  0  0  0  0
    8.0798   -4.5363    0.0000 N   0  0  0  0  0  0  0  0  0  0  0  0
    8.4172   -3.2124    0.0000 N   0  0  0  0  0  0  0  0  0  0  0  0
    6.3925   -4.9776    0.0000 N   0  0  0  0  0  0  0  0  0  0  0  0
   11.6000   -5.4217    0.0000 N   0  0  0  0  0  0  0  0  0  0  0  0
    3.5045   -2.7062    0.0000 N   0  0  0  0  0  0  0  0  0  0  0  0
    1.8885   -4.9971    0.0000 S   0  0  0  0  0  0  0  0  0  0  0  0
    7.7813   -3.7511    0.0000 N   0  0  0  0  0  0  0  0  0  0  0  0
    4.2248   -2.2714    0.0000 O   0  0  0  0  0  0  0  0  0  0  0  0
    6.9765   -5.5812    0.0000 S   0  0  0  0  0  0  0  0  0  0  0  0
  1  6  2  0  0  0  0
  2  6  1  0  0  0  0
  7  8  1  0  0  0  0
  8  9  1  0  0  0  0
  7  9  1  0  0  0  0
  6  9  1  0  0  0  0
 11 12  1  0  0  0  0
 10 13  1  0  0  0  0
 14 15  1  0  0  0  0
 15 16  1  0  0  0  0
  3 17  1  0  0  0  0
 13 18  2  0  0  0  0
 12 19  1  0  0  0  0
 20 21  1  0  0  0  0
 21 22  1  0  0  0  0
  4 22  1  0  0  0  0
 16 23  1  0  0  0  0
 23 24  2  0  0  0  0
 10 25  1  0  0  0  0
 25 26  2  0  0  0  0
 27 28  2  0  0  0  0
 13 31  1  0  0  0  0
 17 31  2  0  0  0  0
 19 32  1  0  0  0  0
 27 32  1  0  0  0  0
 16 33  1  0  0  0  0
 25 33  1  0  0  0  0
 12 34  2  0  0  0  0
 11 35  2  0  0  0  0
 15 36  1  0  0  0  0
 23 36  1  0  0  0  0
 20 37  1  0  0  0  0
 27 37  1  0  0  0  0
 10 38  2  0  0  0  0
 17 39  1  0  0  0  0
 18 39  1  0  0  0  0
 14 40  1  0  0  0  0
 34 40  1  0  0  0  0
 35 40  1  0  0  0  0
  9 41  1  0  0  0  0
 38 41  1  0  0  0  0
  5 42  1  0  0  0  0
 29 42  2  0  0  0  0
 30 42  2  0  0  0  0
 36 42  1  0  0  0  0
M  END
> <ID>
SCHEMBL21167903

> <InChIKey>
RURBIZCWVDBGRF-DBFSUHOCSA-N

> <MW>
629.62

> <Series_Name>
Series_14

$$$$
SCHEMBL21167908
  Mrv1719007231912012D 0   0.00000     0.00000     0

 41 44  0  0  0  0              1 V2000 
    5.8516   -1.4472    0.0000 O   0  0  0  0  0  0  0  0  0  0  0  0
    0.3985   -4.2646    0.0000 N   0  0  0  0  0  0  0  0  0  0  0  0
   13.3392   -5.9425    0.0000 N   0  0  0  0  0  0  0  0  0  0  0  0
   11.2698   -6.3760    0.0000 C   0  0  0  0  0  0  0  0  0  0  0  0
   10.1792   -6.0963    0.0000 C   0  0  0  0  0  0  0  0  0  0  0  0
    3.8172   -0.7411    0.0000 C   0  0  0  0  0  0  0  0  0  0  0  0
    4.2157   -1.4262    0.0000 C   0  0  0  0  0  0  0  0  0  0  0  0
    3.5236   -3.5842    0.0000 C   0  0  0  0  0  0  0  0  0  0  0  0
    9.1445   -3.7193    0.0000 C   0  0  0  0  0  0  0  0  0  0  0  0
    8.9394   -4.5303    0.0000 C   0  0  0  0  0  0  0  0  0  0  0  0
    6.9586   -3.5981    0.0000 C   0  0  0  0  0  0  0  0  0  0  0  0
    2.7965   -4.0083    0.0000 C   0  0  0  0  0  0  0  0  0  0  0  0
    6.4086   -4.1807    0.0000 C   0  0  0  0  0  0  0  0  0  0  0  0
    5.5836   -4.1761    0.0000 C   0  0  0  0  0  0  0  0  0  0  0  0
    1.4868   -4.3066    0.0000 C   0  0  0  0  0  0  0  0  0  0  0  0
    2.7266   -4.8519    0.0000 C   0  0  0  0  0  0  0  0  0  0  0  0
    9.4801   -5.1875    0.0000 C   0  0  0  0  0  0  0  0  0  0  0  0
   10.8853   -5.6698    0.0000 C   0  0  0  0  0  0  0  0  0  0  0  0
   12.2486   -6.0963    0.0000 C   0  0  0  0  0  0  0  0  0  0  0  0
   11.6893   -5.4951    0.0000 C   0  0  0  0  0  0  0  0  0  0  0  0
    4.9987   -5.6349    0.0000 O   0  0  0  0  0  0  0  0  0  0  0  0
    4.2437   -4.8589    0.0000 O   0  0  0  0  0  0  0  0  0  0  0  0
    4.9707   -1.0207    0.0000 C   0  0  0  0  0  0  0  0  0  0  0  0
    4.9777   -0.1678    0.0000 O   0  0  0  0  0  0  0  0  0  0  0  0
    3.3907   -1.4332    0.0000 C   0  0  0  0  0  0  0  0  0  0  0  0
    4.2413   -3.9710    0.0000 C   0  0  0  0  0  0  0  0  0  0  0  0
    5.5976   -4.9847    0.0000 C   0  0  0  0  0  0  0  0  0  0  0  0
   10.2980   -5.0686    0.0000 N   0  0  0  0  0  0  0  0  0  0  0  0
    6.4179   -5.0267    0.0000 N   0  0  0  0  0  0  0  0  0  0  0  0
    1.9016   -5.0477    0.0000 S   0  0  0  0  0  0  0  0  0  0  0  0
    7.8092   -3.7892    0.0000 N   0  0  0  0  0  0  0  0  0  0  0  0
    3.5236   -2.7266    0.0000 N   0  0  0  0  0  0  0  0  0  0  0  0
    8.4594   -3.2439    0.0000 N   0  0  0  0  0  0  0  0  0  0  0  0
    4.9987   -3.5585    0.0000 N   0  0  0  0  0  0  0  0  0  0  0  0
    8.1098   -4.5863    0.0000 N   0  0  0  0  0  0  0  0  0  0  0  0
    2.0484   -3.6634    0.0000 N   0  0  0  0  0  0  0  0  0  0  0  0
    4.2367   -2.3001    0.0000 O   0  0  0  0  0  0  0  0  0  0  0  0
    7.3274   -5.0449    0.0000 O   0  0  0  0  0  0  0  0  0  0  0  0
    6.8635   -5.4905    0.0000 S   0  0  0  0  0  0  0  0  0  0  0  0
    6.3997   -5.9361    0.0000 O   0  0  0  0  0  0  0  0  0  0  0  0
    7.3091   -5.9544    0.0000 O   0  0  0  0  0  0  0  0  0  0  0  0
  6  7  1  0  0  0  0
  9 10  1  0  0  0  0
  8 12  1  0  0  0  0
 11 13  1  0  0  0  0
 13 14  1  0  0  0  0
  2 15  1  0  0  0  0
 12 16  2  0  0  0  0
 10 17  1  0  0  0  0
  5 18  1  0  0  0  0
  4 18  1  0  0  0  0
  3 19  1  0  0  0  0
 19 20  1  0  0  0  0
 18 20  1  0  0  0  0
  1 23  1  0  0  0  0
  7 23  1  0  0  0  0
 23 24  2  0  0  0  0
  6 25  1  0  0  0  0
  7 25  1  0  0  0  0
  8 26  1  0  0  0  0
 22 26  2  0  0  0  0
 14 27  1  0  0  0  0
 21 27  2  0  0  0  0
 17 28  1  0  0  0  0
 18 28  1  0  0  0  0
 13 29  1  0  0  0  0
 27 29  1  0  0  0  0
 15 30  1  0  0  0  0
 16 30  1  0  0  0  0
 11 31  1  0  0  0  0
  8 32  2  0  0  0  0
  9 33  2  0  0  0  0
 31 33  1  0  0  0  0
 14 34  1  0  0  0  0
 26 34  1  0  0  0  0
 10 35  2  0  0  0  0
 31 35  1  0  0  0  0
 12 36  1  0  0  0  0
 15 36  2  0  0  0  0
  7 37  1  0  0  0  0
 32 37  1  0  0  0  0
 29 39  1  0  0  0  0
 38 39  1  0  0  0  0
 39 40  2  0  0  0  0
 39 41  2  0  0  0  0
M  END
> <ID>
SCHEMBL21167908

> <InChIKey>
WNJGKBQCOSSKSJ-NUJZUDFISA-N

> <MW>
614.65

> <Series_Name>
Series_14

$$$$
SCHEMBL21167912
  Mrv1719007231912012D 0   0.00000     0.00000     0

 42 45  0  0  1  0              1 V2000 
    5.4707   -5.4707    0.0000 O   0  0  0  0  0  0  0  0  0  0  0  0
    5.8351   -4.7012    0.0000 C   0  0  0  0  0  0  0  0  0  0  0  0
    5.6893   -3.9469    0.0000 C   0  0  1  0  0  0  0  0  0  0  0  0
    4.9586   -3.3214    0.0000 N   0  0  0  0  0  0  0  0  0  0  0  0
    6.4710   -3.7393    0.0000 C   0  0  1  0  0  0  0  0  0  0  0  0
    7.6671   -2.9779    0.0000 N   0  0  0  0  0  0  0  0  0  0  0  0
    6.8558   -3.0331    0.0000 C   0  0  0  0  0  0  0  0  0  0  0  0
    6.6564   -4.5274    0.0000 N   0  0  0  0  0  0  0  0  0  0  0  0
    2.0482   -3.6516    0.0000 N   0  0  0  0  0  0  0  0  0  0  0  0
    2.8042   -4.0081    0.0000 C   0  0  0  0  0  0  0  0  0  0  0  0
    3.4899   -2.7353    0.0000 N   0  0  0  0  0  0  0  0  0  0  0  0
    3.5231   -3.5999    0.0000 C   0  0  0  0  0  0  0  0  0  0  0  0
    4.1300   -3.9752    0.0000 C   0  0  0  0  0  0  0  0  0  0  0  0
    4.2041   -4.8104    0.0000 O   0  0  0  0  0  0  0  0  0  0  0  0
    2.7060   -4.8489    0.0000 C   0  0  0  0  0  0  0  0  0  0  0  0
    1.9134   -5.0260    0.0000 S   0  0  0  0  0  0  0  0  0  0  0  0
    0.4380   -4.1906    0.0000 N   0  0  0  0  0  0  0  0  0  0  0  0
    1.5291   -4.2960    0.0000 C   0  0  0  0  0  0  0  0  0  0  0  0
   10.3216   -2.4120    0.0000 N   0  0  0  0  0  0  0  0  0  0  0  0
   10.4186   -3.2593    0.0000 C   0  0  0  0  0  0  0  0  0  0  0  0
   11.3120   -3.5842    0.0000 N   0  0  0  0  0  0  0  0  0  0  0  0
    9.5871   -3.7325    0.0000 N   0  0  0  0  0  0  0  0  0  0  0  0
    8.1521   -3.6651    0.0000 N   0  0  0  0  0  0  0  0  0  0  0  0
    8.9342   -3.4150    0.0000 C   0  0  0  0  0  0  0  0  0  0  0  0
    8.1521   -2.3041    0.0000 N   0  0  0  0  0  0  0  0  0  0  0  0
    8.9365   -2.5784    0.0000 C   0  0  0  0  0  0  0  0  0  0  0  0
    9.5838   -2.0909    0.0000 C   0  0  0  0  0  0  0  0  0  0  0  0
   10.9777   -1.9479    0.0000 C   0  0  0  0  0  0  0  0  0  0  0  0
   11.7530   -2.2536    0.0000 C   0  0  0  0  0  0  0  0  0  0  0  0
   12.3957   -1.7788    0.0000 C   0  0  0  0  0  0  0  0  0  0  0  0
   13.2860   -2.1020    0.0000 N   0  0  0  0  0  0  0  0  0  0  0  0
    3.4139   -1.4754    0.0000 C   0  0  0  0  0  0  0  0  0  0  0  0
    3.8059   -0.7244    0.0000 C   0  0  0  0  0  0  0  0  0  0  0  0
    4.1938   -1.4784    0.0000 C   0  0  0  0  0  0  0  0  0  0  0  0
    4.8258   -1.1116    0.0000 C   0  0  0  0  0  0  0  0  0  0  0  0
    4.9183   -0.2156    0.0000 O   0  0  0  0  0  0  0  0  0  0  0  0
    5.7671   -1.4687    0.0000 O   0  0  0  0  0  0  0  0  0  0  0  0
    4.1906   -2.3176    0.0000 O   0  0  0  0  0  0  0  0  0  0  0  0
    7.1331   -4.7034    0.0000 S   0  0  0  0  0  0  0  0  0  0  0  0
    6.9572   -5.1800    0.0000 O   0  0  0  0  0  0  0  0  0  0  0  0
    7.6098   -4.8793    0.0000 O   0  0  0  0  0  0  0  0  0  0  0  0
    7.3090   -4.2267    0.0000 O   0  0  0  0  0  0  0  0  0  0  0  0
  1  2  2  0  0  0  0
  3  2  1  0  0  0  0
  2  8  1  0  0  0  0
  3  4  1  1  0  0  0
  3  5  1  0  0  0  0
  4 13  1  0  0  0  0
  5  7  1  1  0  0  0
  6  7  1  0  0  0  0
  6 23  1  0  0  0  0
  6 25  1  0  0  0  0
  5  8  1  0  0  0  0
  8 39  1  0  0  0  0
  9 10  1  0  0  0  0
 10 12  1  0  0  0  0
 11 12  2  0  0  0  0
 12 13  1  0  0  0  0
 13 14  2  0  0  0  0
 15 10  2  0  0  0  0
 16 15  1  0  0  0  0
 16 18  1  0  0  0  0
 17 18  1  0  0  0  0
 18  9  2  0  0  0  0
 19 20  1  0  0  0  0
 19 28  1  0  0  0  0
 20 21  1  0  0  0  0
 22 20  2  0  0  0  0
 23 24  2  0  0  0  0
 25 26  2  0  0  0  0
 26 27  1  0  0  0  0
 26 24  1  0  0  0  0
 27 19  1  0  0  0  0
 28 29  1  0  0  0  0
 29 30  1  0  0  0  0
 30 31  1  0  0  0  0
 32 33  1  0  0  0  0
 33 34  1  0  0  0  0
 34 38  1  0  0  0  0
 34 32  1  0  0  0  0
 35 36  1  0  0  0  0
 35 34  1  0  0  0  0
 37 35  1  0  0  0  0
 38 11  1  0  0  0  0
 39 40  2  0  0  0  0
 39 41  2  0  0  0  0
 39 42  1  0  0  0  0
M  END
> <ID>
SCHEMBL21167912

> <InChIKey>
FYQQSBMICALXNO-FJUZVKBWSA-N

> <MW>
630.66

> <Series_Name>
Series_14

$$$$
SCHEMBL21167913
  Mrv1719007231912022D 0   0.00000     0.00000     0

 40 43  0  0  0  0              1 V2000 
    5.4289    4.0802    0.0000 O   0  0  0  0  0  0  0  0  0  0  0  0
   13.2177    3.3784    0.0000 N   0  0  0  0  0  0  0  0  0  0  0  0
   10.1627    2.3601    0.0000 C   0  0  0  0  0  0  0  0  0  0  0  0
    0.0000    1.2523    0.0000 N   0  0  0  0  0  0  0  0  0  0  0  0
    3.4105    4.8050    0.0000 C   0  0  0  0  0  0  0  0  0  0  0  0
    3.8119    4.0940    0.0000 C   0  0  0  0  0  0  0  0  0  0  0  0
    3.0206    4.0940    0.0000 C   0  0  0  0  0  0  0  0  0  0  0  0
   12.1719    3.7775    0.0000 C   0  0  0  0  0  0  0  0  0  0  0  0
   11.5389    3.2959    0.0000 C   0  0  0  0  0  0  0  0  0  0  0  0
   10.7957    3.6124    0.0000 C   0  0  0  0  0  0  0  0  0  0  0  0
    9.3096    3.4609    0.0000 C   0  0  0  0  0  0  0  0  0  0  0  0
    8.6535    2.9701    0.0000 C   0  0  0  0  0  0  0  0  0  0  0  0
    8.6627    2.1261    0.0000 C   0  0  0  0  0  0  0  0  0  0  0  0
    3.1032    1.9289    0.0000 C   0  0  0  0  0  0  0  0  0  0  0  0
    6.5435    2.5114    0.0000 C   0  0  0  0  0  0  0  0  0  0  0  0
    6.1352    1.7958    0.0000 C   0  0  0  0  0  0  0  0  0  0  0  0
    2.3876    1.5114    0.0000 C   0  0  0  0  0  0  0  0  0  0  0  0
    5.3325    1.5666    0.0000 C   0  0  0  0  0  0  0  0  0  0  0  0
    1.0849    1.2179    0.0000 C   0  0  0  0  0  0  0  0  0  0  0  0
    2.3188    0.6675    0.0000 C   0  0  0  0  0  0  0  0  0  0  0  0
    4.5481    4.4793    0.0000 C   0  0  0  0  0  0  0  0  0  0  0  0
    4.5550    5.3600    0.0000 O   0  0  0  0  0  0  0  0  0  0  0  0
    3.8256    1.5343    0.0000 C   0  0  0  0  0  0  0  0  0  0  0  0
    3.8394    0.6605    0.0000 O   0  0  0  0  0  0  0  0  0  0  0  0
    5.5481    0.7729    0.0000 C   0  0  0  0  0  0  0  0  0  0  0  0
    5.1329    0.0000    0.0000 O   0  0  0  0  0  0  0  0  0  0  0  0
    3.8325    3.2201    0.0000 O   0  0  0  0  0  0  0  0  0  0  0  0
    7.8715    3.2338    0.0000 N   0  0  0  0  0  0  0  0  0  0  0  0
    3.1101    2.7936    0.0000 N   0  0  0  0  0  0  0  0  0  0  0  0
    4.5997    2.0313    0.0000 N   0  0  0  0  0  0  0  0  0  0  0  0
    6.3508    0.9633    0.0000 N   0  0  0  0  0  0  0  0  0  0  0  0
    1.5000    0.4610    0.0000 S   0  0  0  0  0  0  0  0  0  0  0  0
    7.8715    1.8372    0.0000 N   0  0  0  0  0  0  0  0  0  0  0  0
    1.6376    1.8509    0.0000 N   0  0  0  0  0  0  0  0  0  0  0  0
    7.3761    2.5390    0.0000 N   0  0  0  0  0  0  0  0  0  0  0  0
   10.0939    3.1169    0.0000 N   0  0  0  0  0  0  0  0  0  0  0  0
    7.2284    1.1809    0.0000 O   0  0  0  0  0  0  0  0  0  0  0  0
    6.8985    0.6334    0.0000 S   0  0  0  0  0  0  0  0  0  0  0  0
    6.5685    0.0857    0.0000 O   0  0  0  0  0  0  0  0  0  0  0  0
    7.4460    0.3034    0.0000 O   0  0  0  0  0  0  0  0  0  0  0  0
  5  6  1  0  0  0  0
  5  7  1  0  0  0  0
  6  7  1  0  0  0  0
  2  8  1  0  0  0  0
  8  9  1  0  0  0  0
  9 10  1  0  0  0  0
 11 12  1  0  0  0  0
 12 13  1  0  0  0  0
 15 16  1  0  0  0  0
 14 17  1  0  0  0  0
 16 18  1  0  0  0  0
  4 19  1  0  0  0  0
 17 20  2  0  0  0  0
  6 21  1  0  0  0  0
  1 21  1  0  0  0  0
 21 22  2  0  0  0  0
 14 23  1  0  0  0  0
 23 24  2  0  0  0  0
 18 25  1  0  0  0  0
 25 26  2  0  0  0  0
  6 27  1  0  0  0  0
 12 28  2  0  0  0  0
 14 29  2  0  0  0  0
 27 29  1  0  0  0  0
 18 30  1  0  0  0  0
 23 30  1  0  0  0  0
 16 31  1  0  0  0  0
 25 31  1  0  0  0  0
 19 32  1  0  0  0  0
 20 32  1  0  0  0  0
 13 33  2  0  0  0  0
 17 34  1  0  0  0  0
 19 34  2  0  0  0  0
 15 35  1  0  0  0  0
 28 35  1  0  0  0  0
 33 35  1  0  0  0  0
  3 36  1  0  0  0  0
 10 36  1  0  0  0  0
 11 36  1  0  0  0  0
 31 38  1  0  0  0  0
 37 38  1  0  0  0  0
 38 39  2  0  0  0  0
 38 40  2  0  0  0  0
M  END
> <ID>
SCHEMBL21167913

> <InChIKey>
OPTTYRUWFFBWHG-VYYCAZPPSA-N

> <MW>
600.63

> <Series_Name>
Series_14

$$$$
SCHEMBL21167916
  Mrv1719007231912042D 0   0.00000     0.00000     0

 40 43  0  0  0  0              1 V2000 
    5.0129   -0.1713    0.0000 O   0  0  0  0  0  0  0  0  0  0  0  0
    5.9087   -1.4558    0.0000 O   0  0  0  0  0  0  0  0  0  0  0  0
   13.1679   -3.8008    0.0000 N   0  0  0  0  0  0  0  0  0  0  0  0
    0.3952   -4.2685    0.0000 N   0  0  0  0  0  0  0  0  0  0  0  0
    4.9492   -1.0496    0.0000 C   0  0  0  0  0  0  0  0  0  0  0  0
    4.2751   -1.4360    0.0000 C   0  0  0  0  0  0  0  0  0  0  0  0
    3.8469   -0.7377    0.0000 C   0  0  0  0  0  0  0  0  0  0  0  0
    3.4780   -1.4360    0.0000 C   0  0  0  0  0  0  0  0  0  0  0  0
    3.5000   -3.6054    0.0000 C   0  0  0  0  0  0  0  0  0  0  0  0
    2.8193   -4.0270    0.0000 C   0  0  0  0  0  0  0  0  0  0  0  0
    7.1142   -3.7020    0.0000 C   0  0  0  0  0  0  0  0  0  0  0  0
    6.5082   -4.1983    0.0000 C   0  0  0  0  0  0  0  0  0  0  0  0
    9.9467   -3.7415    0.0000 C   0  0  0  0  0  0  0  0  0  0  0  0
    9.2748   -4.1719    0.0000 C   0  0  0  0  0  0  0  0  0  0  0  0
   12.1205   -4.1631    0.0000 C   0  0  0  0  0  0  0  0  0  0  0  0
   11.4222   -3.7415    0.0000 C   0  0  0  0  0  0  0  0  0  0  0  0
    5.6826   -4.1851    0.0000 C   0  0  0  0  0  0  0  0  0  0  0  0
    1.5063   -4.2949    0.0000 C   0  0  0  0  0  0  0  0  0  0  0  0
    2.7403   -4.8482    0.0000 C   0  0  0  0  0  0  0  0  0  0  0  0
    8.9981   -4.9799    0.0000 C   0  0  0  0  0  0  0  0  0  0  0  0
    5.0787   -5.6518    0.0000 O   0  0  0  0  0  0  0  0  0  0  0  0
    4.2883   -4.8745    0.0000 O   0  0  0  0  0  0  0  0  0  0  0  0
   10.2761   -4.9206    0.0000 O   0  0  0  0  0  0  0  0  0  0  0  0
   11.1258   -4.9206    0.0000 O   0  0  0  0  0  0  0  0  0  0  0  0
    4.2773   -3.9874    0.0000 C   0  0  0  0  0  0  0  0  0  0  0  0
    5.7023   -5.0195    0.0000 C   0  0  0  0  0  0  0  0  0  0  0  0
    7.9178   -4.1697    0.0000 N   0  0  0  0  0  0  0  0  0  0  0  0
    2.0618   -3.6691    0.0000 N   0  0  0  0  0  0  0  0  0  0  0  0
    5.0173   -3.5977    0.0000 N   0  0  0  0  0  0  0  0  0  0  0  0
    3.5637   -2.7271    0.0000 N   0  0  0  0  0  0  0  0  0  0  0  0
    8.6095   -3.6625    0.0000 N   0  0  0  0  0  0  0  0  0  0  0  0
   10.6911   -4.1763    0.0000 S   0  0  0  0  0  0  0  0  0  0  0  0
    4.2883   -2.3121    0.0000 O   0  0  0  0  0  0  0  0  0  0  0  0
    6.5147   -5.0524    0.0000 N   0  0  0  0  0  0  0  0  0  0  0  0
    8.1813   -4.9865    0.0000 N   0  0  0  0  0  0  0  0  0  0  0  0
    1.9169   -5.0458    0.0000 S   0  0  0  0  0  0  0  0  0  0  0  0
    7.3808   -5.0665    0.0000 O   0  0  0  0  0  0  0  0  0  0  0  0
    6.9407   -5.4925    0.0000 S   0  0  0  0  0  0  0  0  0  0  0  0
    6.5005   -5.9186    0.0000 O   0  0  0  0  0  0  0  0  0  0  0  0
    7.3667   -5.9327    0.0000 O   0  0  0  0  0  0  0  0  0  0  0  0
  1  5  2  0  0  0  0
  2  5  1  0  0  0  0
  5  6  1  0  0  0  0
  6  7  1  0  0  0  0
  7  8  1  0  0  0  0
  6  8  1  0  0  0  0
  9 10  1  0  0  0  0
 11 12  1  0  0  0  0
 13 14  1  0  0  0  0
  3 15  1  0  0  0  0
 15 16  1  0  0  0  0
 12 17  1  0  0  0  0
  4 18  1  0  0  0  0
 10 19  2  0  0  0  0
 14 20  1  0  0  0  0
  9 25  1  0  0  0  0
 22 25  2  0  0  0  0
 17 26  1  0  0  0  0
 21 26  2  0  0  0  0
 11 27  1  0  0  0  0
 10 28  1  0  0  0  0
 18 28  2  0  0  0  0
 17 29  1  0  0  0  0
 25 29  1  0  0  0  0
  9 30  2  0  0  0  0
 14 31  2  0  0  0  0
 27 31  1  0  0  0  0
 13 32  1  0  0  0  0
 16 32  1  0  0  0  0
 23 32  2  0  0  0  0
 24 32  2  0  0  0  0
  6 33  1  0  0  0  0
 30 33  1  0  0  0  0
 12 34  1  0  0  0  0
 26 34  1  0  0  0  0
 20 35  2  0  0  0  0
 27 35  1  0  0  0  0
 18 36  1  0  0  0  0
 19 36  1  0  0  0  0
 34 38  1  0  0  0  0
 37 38  1  0  0  0  0
 38 39  2  0  0  0  0
 38 40  2  0  0  0  0
M  END
> <ID>
SCHEMBL21167916

> <InChIKey>
RWDKMLIJLIPPJM-ROTLSHHCSA-N

> <MW>
621.62

> <Series_Name>
Series_14

$$$$
SCHEMBL21167924
  Mrv1719007231912052D 0   0.00000     0.00000     0

 36 40  0  0  0  0              1 V2000 
    4.9423   -0.1752    0.0000 O   0  0  0  0  0  0  0  0  0  0  0  0
    5.8181   -1.3708    0.0000 O   0  0  0  0  0  0  0  0  0  0  0  0
    0.3960   -4.1351    0.0000 N   0  0  0  0  0  0  0  0  0  0  0  0
    7.4401   -5.5439    0.0000 S   0  0  0  0  0  0  0  0  0  0  0  0
    4.8738   -0.9494    0.0000 C   0  0  0  0  0  0  0  0  0  0  0  0
    3.7975   -0.6600    0.0000 C   0  0  0  0  0  0  0  0  0  0  0  0
    3.4269   -1.3555    0.0000 C   0  0  0  0  0  0  0  0  0  0  0  0
    4.1999   -1.3479    0.0000 C   0  0  0  0  0  0  0  0  0  0  0  0
    2.7720   -3.8939    0.0000 C   0  0  0  0  0  0  0  0  0  0  0  0
    7.0213   -3.5944    0.0000 C   0  0  0  0  0  0  0  0  0  0  0  0
    6.4019   -4.0615    0.0000 C   0  0  0  0  0  0  0  0  0  0  0  0
    5.5947   -4.0462    0.0000 C   0  0  0  0  0  0  0  0  0  0  0  0
    9.1992   -4.0666    0.0000 C   0  0  0  0  0  0  0  0  0  0  0  0
    8.9607   -4.8585    0.0000 C   0  0  0  0  0  0  0  0  0  0  0  0
    1.4825   -4.1580    0.0000 C   0  0  0  0  0  0  0  0  0  0  0  0
    2.7111   -4.6910    0.0000 C   0  0  0  0  0  0  0  0  0  0  0  0
    9.4227   -5.5287    0.0000 C   0  0  0  0  0  0  0  0  0  0  0  0
   10.6715   -6.1988    0.0000 C   0  0  0  0  0  0  0  0  0  0  0  0
   11.4686   -6.4120    0.0000 C   0  0  0  0  0  0  0  0  0  0  0  0
   10.4634   -7.0061    0.0000 C   0  0  0  0  0  0  0  0  0  0  0  0
    4.9956   -5.4983    0.0000 O   0  0  0  0  0  0  0  0  0  0  0  0
    3.5030   -3.4624    0.0000 C   0  0  0  0  0  0  0  0  0  0  0  0
    4.2239   -3.8762    0.0000 C   0  0  0  0  0  0  0  0  0  0  0  0
    4.2265   -4.7215    0.0000 O   0  0  0  0  0  0  0  0  0  0  0  0
    5.6023   -4.8712    0.0000 C   0  0  0  0  0  0  0  0  0  0  0  0
   11.4305   -7.2193    0.0000 N   0  0  0  0  0  0  0  0  0  0  0  0
    6.4120   -4.9042    0.0000 N   0  0  0  0  0  0  0  0  0  0  0  0
    7.8742   -4.0513    0.0000 N   0  0  0  0  0  0  0  0  0  0  0  0
    4.8988   -3.4691    0.0000 N   0  0  0  0  0  0  0  0  0  0  0  0
    1.9038   -4.8966    0.0000 S   0  0  0  0  0  0  0  0  0  0  0  0
    8.1179   -4.8662    0.0000 N   0  0  0  0  0  0  0  0  0  0  0  0
    3.5182   -2.6273    0.0000 N   0  0  0  0  0  0  0  0  0  0  0  0
    4.2265   -2.2008    0.0000 O   0  0  0  0  0  0  0  0  0  0  0  0
   10.4253   -5.4678    0.0000 N   0  0  0  0  0  0  0  0  0  0  0  0
    8.5444   -3.5639    0.0000 N   0  0  0  0  0  0  0  0  0  0  0  0
    2.0409   -3.5487    0.0000 N   0  0  0  0  0  0  0  0  0  0  0  0
  1  5  2  0  0  0  0
  2  5  1  0  0  0  0
  6  7  1  0  0  0  0
  7  8  1  0  0  0  0
  6  8  1  0  0  0  0
  5  8  1  0  0  0  0
 10 11  1  0  0  0  0
 11 12  1  0  0  0  0
 13 14  1  0  0  0  0
  3 15  1  0  0  0  0
  9 16  2  0  0  0  0
 14 17  1  0  0  0  0
 18 19  1  0  0  0  0
 18 20  1  0  0  0  0
  9 22  1  0  0  0  0
 22 23  1  0  0  0  0
 23 24  2  0  0  0  0
 12 25  1  0  0  0  0
 21 25  2  0  0  0  0
 19 26  1  0  0  0  0
 20 26  1  0  0  0  0
  4 27  1  0  0  0  0
 11 27  1  0  0  0  0
 25 27  1  0  0  0  0
 10 28  1  0  0  0  0
 12 29  1  0  0  0  0
 23 29  1  0  0  0  0
 15 30  1  0  0  0  0
 16 30  1  0  0  0  0
 14 31  2  0  0  0  0
 28 31  1  0  0  0  0
 22 32  2  0  0  0  0
  8 33  1  0  0  0  0
 32 33  1  0  0  0  0
 17 34  1  0  0  0  0
 18 34  1  0  0  0  0
 13 35  2  0  0  0  0
 28 35  1  0  0  0  0
  9 36  1  0  0  0  0
 15 36  2  0  0  0  0
M  END
> <ID>
SCHEMBL21167924

> <InChIKey>
UXDZIURNUDWYEV-WKIKZPBSSA-N

> <MW>
536.59

> <Series_Name>
Series_14

$$$$
SCHEMBL21167929
  Mrv1719007231912082D 0   0.00000     0.00000     0

 44 48  0  0  0  0              1 V2000 
    5.8693   -1.5152    0.0000 O   0  0  0  0  0  0  0  0  0  0  0  0
   11.7465   -3.0303    0.0000 N   0  0  0  0  0  0  0  0  0  0  0  0
   12.6157   -4.4339    0.0000 N   0  0  0  0  0  0  0  0  0  0  0  0
    7.4161   -5.3175    0.0000 O   0  0  0  0  0  0  0  0  0  0  0  0
    4.1587   -1.5032    0.0000 C   0  0  0  0  0  0  0  0  0  0  0  0
    3.7640   -0.7814    0.0000 C   0  0  0  0  0  0  0  0  0  0  0  0
    3.3573   -1.4992    0.0000 C   0  0  0  0  0  0  0  0  0  0  0  0
   11.5259   -3.9394    0.0000 C   0  0  0  0  0  0  0  0  0  0  0  0
    2.6635   -4.2052    0.0000 C   0  0  0  0  0  0  0  0  0  0  0  0
    7.0974   -3.8915    0.0000 C   0  0  0  0  0  0  0  0  0  0  0  0
    6.4806   -4.4179    0.0000 C   0  0  0  0  0  0  0  0  0  0  0  0
   10.0479   -3.9394    0.0000 C   0  0  0  0  0  0  0  0  0  0  0  0
    9.3621   -4.3807    0.0000 C   0  0  0  0  0  0  0  0  0  0  0  0
    5.6353   -4.4126    0.0000 C   0  0  0  0  0  0  0  0  0  0  0  0
    1.3131   -4.5136    0.0000 C   0  0  0  0  0  0  0  0  0  0  0  0
    2.5997   -5.0718    0.0000 C   0  0  0  0  0  0  0  0  0  0  0  0
    9.0750   -5.2313    0.0000 C   0  0  0  0  0  0  0  0  0  0  0  0
    5.6566   -5.2818    0.0000 C   0  0  0  0  0  0  0  0  0  0  0  0
    5.0080   -5.9410    0.0000 O   0  0  0  0  0  0  0  0  0  0  0  0
    4.1786   -5.1276    0.0000 O   0  0  0  0  0  0  0  0  0  0  0  0
    3.4371   -3.7772    0.0000 C   0  0  0  0  0  0  0  0  0  0  0  0
    4.9335   -1.0925    0.0000 C   0  0  0  0  0  0  0  0  0  0  0  0
    4.9442   -0.1755    0.0000 O   0  0  0  0  0  0  0  0  0  0  0  0
    4.1920   -4.1893    0.0000 C   0  0  0  0  0  0  0  0  0  0  0  0
   10.8248   -4.3765    0.0000 N   0  0  0  0  0  0  0  0  0  0  0  0
    3.4371   -2.8708    0.0000 N   0  0  0  0  0  0  0  0  0  0  0  0
    4.8172   -3.8646    0.0000 N   0  0  0  0  0  0  0  0  0  0  0  0
    7.9426   -4.3780    0.0000 N   0  0  0  0  0  0  0  0  0  0  0  0
    8.2138   -5.2393    0.0000 N   0  0  0  0  0  0  0  0  0  0  0  0
    8.6524   -3.8517    0.0000 N   0  0  0  0  0  0  0  0  0  0  0  0
    1.8740   -3.8517    0.0000 N   0  0  0  0  0  0  0  0  0  0  0  0
    4.1786   -2.4242    0.0000 O   0  0  0  0  0  0  0  0  0  0  0  0
    6.4992   -5.3110    0.0000 N   0  0  0  0  0  0  0  0  0  0  0  0
    1.7225   -5.3030    0.0000 S   0  0  0  0  0  0  0  0  0  0  0  0
    0.6689   -4.4409    0.0000 C   0  0  0  0  0  0  0  0  0  0  0  0
    6.9545   -5.7727    0.0000 S   0  0  0  0  0  0  0  0  0  0  0  0
    6.4929   -6.2279    0.0000 O   0  0  0  0  0  0  0  0  0  0  0  0
    7.4097   -6.2343    0.0000 O   0  0  0  0  0  0  0  0  0  0  0  0
    0.0246   -4.3682    0.0000 C   0  0  0  0  0  0  0  0  0  0  0  0
   -0.3604   -4.8898    0.0000 C   0  0  0  0  0  0  0  0  0  0  0  0
   -1.0047   -4.8171    0.0000 C   0  0  0  0  0  0  0  0  0  0  0  0
   -1.2638   -4.2228    0.0000 C   0  0  0  0  0  0  0  0  0  0  0  0
   -0.8787   -3.7012    0.0000 C   0  0  0  0  0  0  0  0  0  0  0  0
   -0.2345   -3.7739    0.0000 C   0  0  0  0  0  0  0  0  0  0  0  0
  5  6  1  0  0  0  0
  6  7  1  0  0  0  0
  5  7  1  0  0  0  0
  2  8  2  0  0  0  0
  3  8  1  0  0  0  0
 10 11  1  0  0  0  0
 12 13  1  0  0  0  0
 11 14  1  0  0  0  0
  9 16  2  0  0  0  0
 13 17  1  0  0  0  0
 14 18  1  0  0  0  0
 18 19  2  0  0  0  0
  9 21  1  0  0  0  0
  1 22  1  0  0  0  0
  5 22  1  0  0  0  0
 22 23  2  0  0  0  0
 20 24  2  0  0  0  0
 21 24  1  0  0  0  0
  8 25  1  0  0  0  0
 12 25  1  0  0  0  0
 21 26  2  0  0  0  0
 14 27  1  0  0  0  0
 24 27  1  0  0  0  0
 10 28  1  0  0  0  0
 17 29  2  0  0  0  0
 28 29  1  0  0  0  0
 13 30  2  0  0  0  0
 28 30  1  0  0  0  0
  9 31  1  0  0  0  0
 15 31  2  0  0  0  0
  5 32  1  0  0  0  0
 26 32  1  0  0  0  0
 11 33  1  0  0  0  0
 18 33  1  0  0  0  0
 15 34  1  0  0  0  0
 16 34  1  0  0  0  0
 15 35  1  0  0  0  0
 33 36  1  0  0  0  0
 35 39  1  0  0  0  0
 39 40  2  0  0  0  0
 40 41  1  0  0  0  0
 41 42  2  0  0  0  0
 42 43  1  0  0  0  0
 43 44  2  0  0  0  0
 44 39  1  0  0  0  0
  4 36  1  0  0  0  0
 36 37  2  0  0  0  0
 36 38  2  0  0  0  0
M  END
> <ID>
SCHEMBL21167929

> <InChIKey>
ASMYUQVZEVGVON-CAQPMQTCSA-N

> <MW>
646.65

> <Series_Name>
Series_14

$$$$
SCHEMBL21167965
  Mrv1719007231912122D 0   0.00000     0.00000     0

 36 39  0  0  0  0              1 V2000 
    4.9529    5.1321    0.0000 O   0  0  0  0  0  0  0  0  0  0  0  0
    0.0000    2.2363    0.0000 N   0  0  0  0  0  0  0  0  0  0  0  0
   10.0276    0.9174    0.0000 C   0  0  0  0  0  0  0  0  0  0  0  0
    3.1036    5.8440    0.0000 C   0  0  0  0  0  0  0  0  0  0  0  0
    2.7022    5.1607    0.0000 C   0  0  0  0  0  0  0  0  0  0  0  0
    3.4943    5.1536    0.0000 C   0  0  0  0  0  0  0  0  0  0  0  0
    2.8026    3.0200    0.0000 C   0  0  0  0  0  0  0  0  0  0  0  0
    8.3790    2.8097    0.0000 C   0  0  0  0  0  0  0  0  0  0  0  0
    8.1831    1.9783    0.0000 C   0  0  0  0  0  0  0  0  0  0  0  0
    2.0858    2.5995    0.0000 C   0  0  0  0  0  0  0  0  0  0  0  0
    6.2144    2.9101    0.0000 C   0  0  0  0  0  0  0  0  0  0  0  0
    5.6696    2.3558    0.0000 C   0  0  0  0  0  0  0  0  0  0  0  0
    0.8004    2.3175    0.0000 C   0  0  0  0  0  0  0  0  0  0  0  0
    4.8429    2.3701    0.0000 C   0  0  0  0  0  0  0  0  0  0  0  0
    2.0141    1.7776    0.0000 C   0  0  0  0  0  0  0  0  0  0  0  0
    8.6944    1.3332    0.0000 C   0  0  0  0  0  0  0  0  0  0  0  0
    3.5265    1.7561    0.0000 O   0  0  0  0  0  0  0  0  0  0  0  0
    4.8286    1.5578    0.0000 C   0  0  0  0  0  0  0  0  0  0  0  0
    4.2576    0.9103    0.0000 O   0  0  0  0  0  0  0  0  0  0  0  0
    4.2409    5.5478    0.0000 C   0  0  0  0  0  0  0  0  0  0  0  0
    4.2433    6.3936    0.0000 O   0  0  0  0  0  0  0  0  0  0  0  0
    3.5313    2.6234    0.0000 C   0  0  0  0  0  0  0  0  0  0  0  0
    4.2504    2.9459    0.0000 N   0  0  0  0  0  0  0  0  0  0  0  0
    1.3332    2.9316    0.0000 N   0  0  0  0  0  0  0  0  0  0  0  0
    7.0602    2.7309    0.0000 N   0  0  0  0  0  0  0  0  0  0  0  0
    2.7954    3.8634    0.0000 N   0  0  0  0  0  0  0  0  0  0  0  0
    9.4979    1.4975    0.0000 N   0  0  0  0  0  0  0  0  0  0  0  0
    7.3540    1.9496    0.0000 N   0  0  0  0  0  0  0  0  0  0  0  0
    5.6768    1.5052    0.0000 N   0  0  0  0  0  0  0  0  0  0  0  0
    7.7052    3.2613    0.0000 N   0  0  0  0  0  0  0  0  0  0  0  0
    1.2042    1.5697    0.0000 S   0  0  0  0  0  0  0  0  0  0  0  0
    3.5193    4.2934    0.0000 O   0  0  0  0  0  0  0  0  0  0  0  0
    6.5355    1.4823    0.0000 O   0  0  0  0  0  0  0  0  0  0  0  0
    6.0946    1.0644    0.0000 S   0  0  0  0  0  0  0  0  0  0  0  0
    5.6538    0.6465    0.0000 O   0  0  0  0  0  0  0  0  0  0  0  0
    6.5125    0.6236    0.0000 O   0  0  0  0  0  0  0  0  0  0  0  0
  4  5  1  0  0  0  0
  5  6  1  0  0  0  0
  4  6  1  0  0  0  0
  8  9  1  0  0  0  0
  7 10  1  0  0  0  0
 11 12  1  0  0  0  0
  2 13  1  0  0  0  0
 12 14  1  0  0  0  0
 10 15  2  0  0  0  0
  9 16  1  0  0  0  0
 14 18  1  0  0  0  0
 18 19  2  0  0  0  0
  1 20  1  0  0  0  0
  6 20  1  0  0  0  0
 20 21  2  0  0  0  0
  7 22  1  0  0  0  0
 17 22  2  0  0  0  0
 14 23  1  0  0  0  0
 22 23  1  0  0  0  0
 10 24  1  0  0  0  0
 13 24  2  0  0  0  0
 11 25  1  0  0  0  0
  7 26  2  0  0  0  0
  3 27  1  0  0  0  0
 16 27  1  0  0  0  0
  9 28  2  0  0  0  0
 25 28  1  0  0  0  0
 12 29  1  0  0  0  0
 18 29  1  0  0  0  0
  8 30  2  0  0  0  0
 25 30  1  0  0  0  0
 13 31  1  0  0  0  0
 15 31  1  0  0  0  0
  6 32  1  0  0  0  0
 26 32  1  0  0  0  0
 29 34  1  0  0  0  0
 33 34  1  0  0  0  0
 34 35  2  0  0  0  0
 34 36  2  0  0  0  0
M  END
> <ID>
SCHEMBL21167965

> <InChIKey>
GPAOHIDUCHGYJI-MYKKPKGFSA-N

> <MW>
543.53

> <Series_Name>
Series_14

$$$$
SCHEMBL21167966
  Mrv1719007231912122D 0   0.00000     0.00000     0

 42 46  0  0  0  0              1 V2000 
    5.0035   -0.1787    0.0000 O   0  0  0  0  0  0  0  0  0  0  0  0
    5.8970   -1.4433    0.0000 O   0  0  0  0  0  0  0  0  0  0  0  0
    0.3986   -4.2062    0.0000 N   0  0  0  0  0  0  0  0  0  0  0  0
    5.0630   -1.0264    0.0000 C   0  0  0  0  0  0  0  0  0  0  0  0
    4.2577   -1.4192    0.0000 C   0  0  0  0  0  0  0  0  0  0  0  0
    3.8626   -0.7423    0.0000 C   0  0  0  0  0  0  0  0  0  0  0  0
    3.5052   -1.3059    0.0000 C   0  0  0  0  0  0  0  0  0  0  0  0
    9.0860   -3.4410    0.0000 C   0  0  0  0  0  0  0  0  0  0  0  0
    9.0860   -2.6117    0.0000 C   0  0  0  0  0  0  0  0  0  0  0  0
    6.9554   -3.0516    0.0000 C   0  0  0  0  0  0  0  0  0  0  0  0
    6.5338   -3.7526    0.0000 C   0  0  0  0  0  0  0  0  0  0  0  0
    9.7320   -3.9176    0.0000 C   0  0  0  0  0  0  0  0  0  0  0  0
    2.8179   -3.9542    0.0000 C   0  0  0  0  0  0  0  0  0  0  0  0
    5.7320   -3.9680    0.0000 C   0  0  0  0  0  0  0  0  0  0  0  0
    1.4891   -4.2475    0.0000 C   0  0  0  0  0  0  0  0  0  0  0  0
   12.6599   -4.2429    0.0000 C   0  0  0  0  0  0  0  0  0  0  0  0
    2.7354   -4.7835    0.0000 C   0  0  0  0  0  0  0  0  0  0  0  0
   12.7974   -5.0585    0.0000 C   0  0  0  0  0  0  0  0  0  0  0  0
   13.6084   -4.9210    0.0000 C   0  0  0  0  0  0  0  0  0  0  0  0
   13.4709   -4.1100    0.0000 C   0  0  0  0  0  0  0  0  0  0  0  0
    5.5396   -5.5190    0.0000 O   0  0  0  0  0  0  0  0  0  0  0  0
    4.2749   -3.9451    0.0000 C   0  0  0  0  0  0  0  0  0  0  0  0
    4.2818   -4.8179    0.0000 O   0  0  0  0  0  0  0  0  0  0  0  0
   11.2028   -4.0825    0.0000 C   0  0  0  0  0  0  0  0  0  0  0  0
   10.9554   -4.9210    0.0000 N   0  0  0  0  0  0  0  0  0  0  0  0
    3.5533   -3.5625    0.0000 C   0  0  0  0  0  0  0  0  0  0  0  0
    5.9497   -4.7537    0.0000 C   0  0  0  0  0  0  0  0  0  0  0  0
    2.0619   -3.6289    0.0000 N   0  0  0  0  0  0  0  0  0  0  0  0
    4.9903   -3.5453    0.0000 N   0  0  0  0  0  0  0  0  0  0  0  0
    7.8008   -3.0241    0.0000 N   0  0  0  0  0  0  0  0  0  0  0  0
    6.7561   -4.5705    0.0000 N   0  0  0  0  0  0  0  0  0  0  0  0
   11.9597   -3.7439    0.0000 N   0  0  0  0  0  0  0  0  0  0  0  0
   10.5431   -3.5945    0.0000 N   0  0  0  0  0  0  0  0  0  0  0  0
    8.2956   -3.7045    0.0000 N   0  0  0  0  0  0  0  0  0  0  0  0
    1.9107   -4.9829    0.0000 S   0  0  0  0  0  0  0  0  0  0  0  0
    3.5533   -2.7079    0.0000 N   0  0  0  0  0  0  0  0  0  0  0  0
    8.2956   -2.3368    0.0000 N   0  0  0  0  0  0  0  0  0  0  0  0
    4.2749   -2.2818    0.0000 O   0  0  0  0  0  0  0  0  0  0  0  0
    7.6005   -4.3599    0.0000 O   0  0  0  0  0  0  0  0  0  0  0  0
    7.2836   -4.8874    0.0000 S   0  0  0  0  0  0  0  0  0  0  0  0
    6.9666   -5.4149    0.0000 O   0  0  0  0  0  0  0  0  0  0  0  0
    7.8111   -5.2044    0.0000 O   0  0  0  0  0  0  0  0  0  0  0  0
  1  4  2  0  0  0  0
  2  4  1  0  0  0  0
  4  5  1  0  0  0  0
  5  6  1  0  0  0  0
  6  7  1  0  0  0  0
  5  7  1  0  0  0  0
  8  9  1  0  0  0  0
 10 11  1  0  0  0  0
  8 12  1  0  0  0  0
 11 14  1  0  0  0  0
  3 15  1  0  0  0  0
 13 17  2  0  0  0  0
 16 18  1  0  0  0  0
 18 19  1  0  0  0  0
 19 20  1  0  0  0  0
 16 20  1  0  0  0  0
 22 23  2  0  0  0  0
 24 25  2  0  0  0  0
 13 26  1  0  0  0  0
 22 26  1  0  0  0  0
 14 27  1  0  0  0  0
 21 27  2  0  0  0  0
 13 28  1  0  0  0  0
 15 28  2  0  0  0  0
 14 29  1  0  0  0  0
 22 29  1  0  0  0  0
 10 30  1  0  0  0  0
 11 31  1  0  0  0  0
 27 31  1  0  0  0  0
 16 32  1  0  0  0  0
 24 32  1  0  0  0  0
 12 33  1  0  0  0  0
 24 33  1  0  0  0  0
  8 34  2  0  0  0  0
 30 34  1  0  0  0  0
 15 35  1  0  0  0  0
 17 35  1  0  0  0  0
 26 36  2  0  0  0  0
  9 37  2  0  0  0  0
 30 37  1  0  0  0  0
  5 38  1  0  0  0  0
 36 38  1  0  0  0  0
 31 40  1  0  0  0  0
 39 40  1  0  0  0  0
 40 41  2  0  0  0  0
 40 42  2  0  0  0  0
M  END
> <ID>
SCHEMBL21167966

> <InChIKey>
IFLVDZXHFBOSHZ-CPDSRJINSA-N

> <MW>
625.64

> <Series_Name>
Series_14

$$$$
SCHEMBL21167981
  Mrv1719007231912142D 0   0.00000     0.00000     0

 39 43  0  0  0  0              1 V2000 
    5.8225   -1.3721    0.0000 O   0  0  0  0  0  0  0  0  0  0  0  0
    0.3931   -4.1462    0.0000 N   0  0  0  0  0  0  0  0  0  0  0  0
    3.7976   -0.6725    0.0000 C   0  0  0  0  0  0  0  0  0  0  0  0
    3.4268   -1.3499    0.0000 C   0  0  0  0  0  0  0  0  0  0  0  0
    4.2166   -1.3573    0.0000 C   0  0  0  0  0  0  0  0  0  0  0  0
    2.7889   -3.8965    0.0000 C   0  0  0  0  0  0  0  0  0  0  0  0
    7.1651   -3.6196    0.0000 C   0  0  0  0  0  0  0  0  0  0  0  0
    6.4134   -4.0943    0.0000 C   0  0  0  0  0  0  0  0  0  0  0  0
    5.5926   -4.1042    0.0000 C   0  0  0  0  0  0  0  0  0  0  0  0
    9.2122   -4.0943    0.0000 C   0  0  0  0  0  0  0  0  0  0  0  0
    8.9649   -4.8953    0.0000 C   0  0  0  0  0  0  0  0  0  0  0  0
    1.4884   -4.1981    0.0000 C   0  0  0  0  0  0  0  0  0  0  0  0
    2.6999   -4.7322    0.0000 C   0  0  0  0  0  0  0  0  0  0  0  0
    9.4347   -5.5778    0.0000 C   0  0  0  0  0  0  0  0  0  0  0  0
   10.7797   -6.1860    0.0000 C   0  0  0  0  0  0  0  0  0  0  0  0
   10.6511   -6.9870    0.0000 C   0  0  0  0  0  0  0  0  0  0  0  0
   11.4670   -7.1206    0.0000 C   0  0  0  0  0  0  0  0  0  0  0  0
   11.5857   -6.3047    0.0000 C   0  0  0  0  0  0  0  0  0  0  0  0
    5.5827   -4.8805    0.0000 C   0  0  0  0  0  0  0  0  0  0  0  0
    4.9992   -5.5333    0.0000 O   0  0  0  0  0  0  0  0  0  0  0  0
    3.5010   -3.4960    0.0000 C   0  0  0  0  0  0  0  0  0  0  0  0
    4.2278   -3.8866    0.0000 C   0  0  0  0  0  0  0  0  0  0  0  0
    4.2278   -4.7470    0.0000 O   0  0  0  0  0  0  0  0  0  0  0  0
    4.9448   -0.9642    0.0000 C   0  0  0  0  0  0  0  0  0  0  0  0
    4.9398   -0.1780    0.0000 O   0  0  0  0  0  0  0  0  0  0  0  0
    2.0397   -3.5603    0.0000 N   0  0  0  0  0  0  0  0  0  0  0  0
    8.1293   -4.8805    0.0000 N   0  0  0  0  0  0  0  0  0  0  0  0
    6.4159   -4.9324    0.0000 N   0  0  0  0  0  0  0  0  0  0  0  0
    8.5595   -3.5825    0.0000 N   0  0  0  0  0  0  0  0  0  0  0  0
    4.9564   -3.4996    0.0000 N   0  0  0  0  0  0  0  0  0  0  0  0
    3.5158   -2.6331    0.0000 N   0  0  0  0  0  0  0  0  0  0  0  0
   10.4509   -5.4962    0.0000 N   0  0  0  0  0  0  0  0  0  0  0  0
    4.2278   -2.2177    0.0000 O   0  0  0  0  0  0  0  0  0  0  0  0
    1.8988   -4.9250    0.0000 S   0  0  0  0  0  0  0  0  0  0  0  0
    7.8771   -4.0794    0.0000 N   0  0  0  0  0  0  0  0  0  0  0  0
    7.2838   -4.9582    0.0000 O   0  0  0  0  0  0  0  0  0  0  0  0
    6.8370   -5.3793    0.0000 S   0  0  0  0  0  0  0  0  0  0  0  0
    6.3902   -5.8004    0.0000 O   0  0  0  0  0  0  0  0  0  0  0  0
    7.2582   -5.8261    0.0000 O   0  0  0  0  0  0  0  0  0  0  0  0
  3  4  1  0  0  0  0
  4  5  1  0  0  0  0
  3  5  1  0  0  0  0
  7  8  1  0  0  0  0
  8  9  1  0  0  0  0
 10 11  1  0  0  0  0
  2 12  1  0  0  0  0
  6 13  2  0  0  0  0
 11 14  1  0  0  0  0
 15 16  1  0  0  0  0
 16 17  1  0  0  0  0
 17 18  1  0  0  0  0
 15 18  1  0  0  0  0
  9 19  1  0  0  0  0
 19 20  2  0  0  0  0
  6 21  1  0  0  0  0
 21 22  1  0  0  0  0
 22 23  2  0  0  0  0
  5 24  1  0  0  0  0
  1 24  1  0  0  0  0
 24 25  2  0  0  0  0
  6 26  1  0  0  0  0
 12 26  2  0  0  0  0
 11 27  2  0  0  0  0
  8 28  1  0  0  0  0
 19 28  1  0  0  0  0
 10 29  2  0  0  0  0
  9 30  1  0  0  0  0
 22 30  1  0  0  0  0
 21 31  2  0  0  0  0
 14 32  1  0  0  0  0
 15 32  1  0  0  0  0
  5 33  1  0  0  0  0
 31 33  1  0  0  0  0
 12 34  1  0  0  0  0
 13 34  1  0  0  0  0
  7 35  1  0  0  0  0
 27 35  1  0  0  0  0
 29 35  1  0  0  0  0
 28 37  1  0  0  0  0
 36 37  1  0  0  0  0
 37 38  2  0  0  0  0
 37 39  2  0  0  0  0
M  END
> <ID>
SCHEMBL21167981

> <InChIKey>
IJQGXCMIQDOGGA-VYYCAZPPSA-N

> <MW>
583.6

> <Series_Name>
Series_14

$$$$
SCHEMBL21167986
  Mrv1719007231912142D 0   0.00000     0.00000     0

 39 43  0  0  0  0              1 V2000 
    5.7965   -1.3687    0.0000 O   0  0  0  0  0  0  0  0  0  0  0  0
    0.3875   -4.1309    0.0000 N   0  0  0  0  0  0  0  0  0  0  0  0
   12.4917   -5.3265    0.0000 N   0  0  0  0  0  0  0  0  0  0  0  0
    3.7929   -0.6651    0.0000 C   0  0  0  0  0  0  0  0  0  0  0  0
    3.4136   -1.3193    0.0000 C   0  0  0  0  0  0  0  0  0  0  0  0
    4.1721   -1.3357    0.0000 C   0  0  0  0  0  0  0  0  0  0  0  0
    3.5345   -3.4905    0.0000 C   0  0  0  0  0  0  0  0  0  0  0  0
    2.7704   -3.8863    0.0000 C   0  0  0  0  0  0  0  0  0  0  0  0
    7.0085   -3.6115    0.0000 C   0  0  0  0  0  0  0  0  0  0  0  0
    6.3709   -4.0567    0.0000 C   0  0  0  0  0  0  0  0  0  0  0  0
    5.5629   -4.0512    0.0000 C   0  0  0  0  0  0  0  0  0  0  0  0
    9.1688   -4.0732    0.0000 C   0  0  0  0  0  0  0  0  0  0  0  0
    8.9270   -4.8812    0.0000 C   0  0  0  0  0  0  0  0  0  0  0  0
    1.4732   -4.1721    0.0000 C   0  0  0  0  0  0  0  0  0  0  0  0
    2.6880   -4.7164    0.0000 C   0  0  0  0  0  0  0  0  0  0  0  0
   11.3731   -5.3595    0.0000 C   0  0  0  0  0  0  0  0  0  0  0  0
   10.7520   -4.8318    0.0000 C   0  0  0  0  0  0  0  0  0  0  0  0
    9.3997   -5.5574    0.0000 C   0  0  0  0  0  0  0  0  0  0  0  0
   10.8839   -5.9861    0.0000 C   0  0  0  0  0  0  0  0  0  0  0  0
    4.9802   -5.5161    0.0000 O   0  0  0  0  0  0  0  0  0  0  0  0
    4.2024   -3.8753    0.0000 C   0  0  0  0  0  0  0  0  0  0  0  0
    4.2051   -4.7328    0.0000 O   0  0  0  0  0  0  0  0  0  0  0  0
    4.9142   -0.9482    0.0000 C   0  0  0  0  0  0  0  0  0  0  0  0
    4.9225   -0.1732    0.0000 O   0  0  0  0  0  0  0  0  0  0  0  0
    5.5738   -4.8868    0.0000 C   0  0  0  0  0  0  0  0  0  0  0  0
    8.0887   -4.8812    0.0000 N   0  0  0  0  0  0  0  0  0  0  0  0
    6.3901   -4.9142    0.0000 N   0  0  0  0  0  0  0  0  0  0  0  0
    4.2051   -2.2098    0.0000 O   0  0  0  0  0  0  0  0  0  0  0  0
    1.8800   -4.9142    0.0000 S   0  0  0  0  0  0  0  0  0  0  0  0
    7.8496   -4.0649    0.0000 N   0  0  0  0  0  0  0  0  0  0  0  0
    8.5257   -3.5703    0.0000 N   0  0  0  0  0  0  0  0  0  0  0  0
    2.0119   -3.5537    0.0000 N   0  0  0  0  0  0  0  0  0  0  0  0
    4.9374   -3.4973    0.0000 N   0  0  0  0  0  0  0  0  0  0  0  0
    3.4878   -2.6138    0.0000 N   0  0  0  0  0  0  0  0  0  0  0  0
   10.2242   -5.4832    0.0000 N   0  0  0  0  0  0  0  0  0  0  0  0
    7.2774   -4.9192    0.0000 O   0  0  0  0  0  0  0  0  0  0  0  0
    6.8313   -5.3604    0.0000 S   0  0  0  0  0  0  0  0  0  0  0  0
    6.3852   -5.8015    0.0000 O   0  0  0  0  0  0  0  0  0  0  0  0
    7.2724   -5.8065    0.0000 O   0  0  0  0  0  0  0  0  0  0  0  0
  4  5  1  0  0  0  0
  5  6  1  0  0  0  0
  4  6  1  0  0  0  0
  7  8  1  0  0  0  0
  9 10  1  0  0  0  0
 10 11  1  0  0  0  0
 12 13  1  0  0  0  0
  2 14  1  0  0  0  0
  8 15  2  0  0  0  0
  3 16  1  0  0  0  0
 16 17  1  0  0  0  0
 13 18  1  0  0  0  0
 16 19  1  0  0  0  0
  7 21  1  0  0  0  0
 21 22  2  0  0  0  0
  1 23  1  0  0  0  0
  6 23  1  0  0  0  0
 23 24  2  0  0  0  0
 11 25  1  0  0  0  0
 20 25  2  0  0  0  0
 13 26  2  0  0  0  0
 10 27  1  0  0  0  0
 25 27  1  0  0  0  0
  6 28  1  0  0  0  0
 14 29  1  0  0  0  0
 15 29  1  0  0  0  0
  9 30  1  0  0  0  0
 26 30  1  0  0  0  0
 12 31  2  0  0  0  0
 30 31  1  0  0  0  0
  8 32  1  0  0  0  0
 14 32  2  0  0  0  0
 11 33  1  0  0  0  0
 21 33  1  0  0  0  0
  7 34  2  0  0  0  0
 28 34  1  0  0  0  0
 17 35  1  0  0  0  0
 18 35  1  0  0  0  0
 19 35  1  0  0  0  0
 27 37  1  0  0  0  0
 36 37  1  0  0  0  0
 37 38  2  0  0  0  0
 37 39  2  0  0  0  0
M  END
> <ID>
SCHEMBL21167986

> <InChIKey>
URYIVIBBGYNQKC-ZMFRSBBQSA-N

> <MW>
584.58

> <Series_Name>
Series_14

$$$$
SCHEMBL21167988
  Mrv1719007231912142D 0   0.00000     0.00000     0

 35 38  0  0  0  0              1 V2000 
    5.0450   -0.1727    0.0000 O   0  0  0  0  0  0  0  0  0  0  0  0
    5.9302   -1.4610    0.0000 O   0  0  0  0  0  0  0  0  0  0  0  0
   11.0184   -4.2534    0.0000 N   0  0  0  0  0  0  0  0  0  0  0  0
    0.4102   -4.3037    0.0000 N   0  0  0  0  0  0  0  0  0  0  0  0
    4.9995   -1.0316    0.0000 C   0  0  0  0  0  0  0  0  0  0  0  0
    3.8863   -0.7485    0.0000 C   0  0  0  0  0  0  0  0  0  0  0  0
    3.5265   -1.3099    0.0000 C   0  0  0  0  0  0  0  0  0  0  0  0
    3.5169   -3.6081    0.0000 C   0  0  0  0  0  0  0  0  0  0  0  0
    2.8500   -4.0543    0.0000 C   0  0  0  0  0  0  0  0  0  0  0  0
    7.0530   -3.7856    0.0000 C   0  0  0  0  0  0  0  0  0  0  0  0
    6.5108   -4.2318    0.0000 C   0  0  0  0  0  0  0  0  0  0  0  0
   10.0037   -3.7568    0.0000 C   0  0  0  0  0  0  0  0  0  0  0  0
    9.3128   -4.1982    0.0000 C   0  0  0  0  0  0  0  0  0  0  0  0
    5.6951   -4.2318    0.0000 C   0  0  0  0  0  0  0  0  0  0  0  0
    1.5017   -4.3325    0.0000 C   0  0  0  0  0  0  0  0  0  0  0  0
    2.7492   -4.8795    0.0000 C   0  0  0  0  0  0  0  0  0  0  0  0
    9.0249   -5.0234    0.0000 C   0  0  0  0  0  0  0  0  0  0  0  0
    4.2965   -4.9083    0.0000 O   0  0  0  0  0  0  0  0  0  0  0  0
    5.7000   -5.0642    0.0000 C   0  0  0  0  0  0  0  0  0  0  0  0
    5.1026   -5.6855    0.0000 O   0  0  0  0  0  0  0  0  0  0  0  0
    4.3037   -4.0183    0.0000 C   0  0  0  0  0  0  0  0  0  0  0  0
    4.3433   -1.4034    0.0000 C   0  0  0  0  0  0  0  0  0  0  0  0
    7.9526   -4.1958    0.0000 N   0  0  0  0  0  0  0  0  0  0  0  0
    8.6363   -3.6848    0.0000 N   0  0  0  0  0  0  0  0  0  0  0  0
    2.0727   -3.6848    0.0000 N   0  0  0  0  0  0  0  0  0  0  0  0
    5.0466   -3.5995    0.0000 N   0  0  0  0  0  0  0  0  0  0  0  0
    3.5697   -2.7492    0.0000 N   0  0  0  0  0  0  0  0  0  0  0  0
    6.5276   -5.0810    0.0000 N   0  0  0  0  0  0  0  0  0  0  0  0
    1.9216   -5.0738    0.0000 S   0  0  0  0  0  0  0  0  0  0  0  0
    8.2117   -5.0162    0.0000 N   0  0  0  0  0  0  0  0  0  0  0  0
    4.2965   -2.3318    0.0000 O   0  0  0  0  0  0  0  0  0  0  0  0
    7.4064   -5.0812    0.0000 O   0  0  0  0  0  0  0  0  0  0  0  0
    6.9669   -5.5205    0.0000 S   0  0  0  0  0  0  0  0  0  0  0  0
    6.5274   -5.9598    0.0000 O   0  0  0  0  0  0  0  0  0  0  0  0
    7.4062   -5.9601    0.0000 O   0  0  0  0  0  0  0  0  0  0  0  0
  1  5  2  0  0  0  0
  2  5  1  0  0  0  0
  6  7  1  0  0  0  0
  8  9  1  0  0  0  0
 10 11  1  0  0  0  0
  3 12  1  0  0  0  0
 12 13  1  0  0  0  0
 11 14  1  0  0  0  0
  4 15  1  0  0  0  0
  9 16  2  0  0  0  0
 13 17  1  0  0  0  0
 14 19  1  0  0  0  0
 19 20  2  0  0  0  0
  8 21  1  0  0  0  0
 18 21  2  0  0  0  0
  6 22  1  0  0  0  0
  7 22  1  0  0  0  0
  5 22  1  0  0  0  0
 10 23  1  0  0  0  0
 13 24  2  0  0  0  0
 23 24  1  0  0  0  0
  9 25  1  0  0  0  0
 15 25  2  0  0  0  0
 14 26  1  0  0  0  0
 21 26  1  0  0  0  0
  8 27  2  0  0  0  0
 11 28  1  0  0  0  0
 19 28  1  0  0  0  0
 15 29  1  0  0  0  0
 16 29  1  0  0  0  0
 17 30  2  0  0  0  0
 23 30  1  0  0  0  0
 22 31  1  0  0  0  0
 27 31  1  0  0  0  0
 28 33  1  0  0  0  0
 32 33  1  0  0  0  0
 33 34  2  0  0  0  0
 33 35  2  0  0  0  0
M  END
> <ID>
SCHEMBL21167988

> <InChIKey>
CSXCIRUQGUJIHI-RMORIDSASA-N

> <MW>
529.5

> <Series_Name>
Series_14

$$$$
SCHEMBL21167990
  Mrv1719007231912152D 0   0.00000     0.00000     0

 42 45  0  0  0  0              1 V2000 
    5.0109   -0.1692    0.0000 O   0  0  0  0  0  0  0  0  0  0  0  0
    5.9025   -1.3471    0.0000 O   0  0  0  0  0  0  0  0  0  0  0  0
    0.3969   -4.0999    0.0000 N   0  0  0  0  0  0  0  0  0  0  0  0
   14.6944   -7.1715    0.0000 N   0  0  0  0  0  0  0  0  0  0  0  0
    4.9458   -0.9415    0.0000 C   0  0  0  0  0  0  0  0  0  0  0  0
    3.8656   -0.6551    0.0000 C   0  0  0  0  0  0  0  0  0  0  0  0
    4.2593   -1.3341    0.0000 C   0  0  0  0  0  0  0  0  0  0  0  0
    3.5011   -1.2235    0.0000 C   0  0  0  0  0  0  0  0  0  0  0  0
    2.8244   -3.8483    0.0000 C   0  0  0  0  0  0  0  0  0  0  0  0
    7.1455   -3.5792    0.0000 C   0  0  0  0  0  0  0  0  0  0  0  0
    6.5077   -4.0305    0.0000 C   0  0  0  0  0  0  0  0  0  0  0  0
    5.6661   -4.0175    0.0000 C   0  0  0  0  0  0  0  0  0  0  0  0
    9.3320   -4.0218    0.0000 C   0  0  0  0  0  0  0  0  0  0  0  0
    9.0891   -4.8200    0.0000 C   0  0  0  0  0  0  0  0  0  0  0  0
    1.5011   -4.1389    0.0000 C   0  0  0  0  0  0  0  0  0  0  0  0
    2.7463   -4.6595    0.0000 C   0  0  0  0  0  0  0  0  0  0  0  0
    9.5663   -5.5186    0.0000 C   0  0  0  0  0  0  0  0  0  0  0  0
   10.9199   -6.0912    0.0000 C   0  0  0  0  0  0  0  0  0  0  0  0
   11.7399   -6.0001    0.0000 C   0  0  0  0  0  0  0  0  0  0  0  0
   12.2475   -6.6638    0.0000 C   0  0  0  0  0  0  0  0  0  0  0  0
    3.5532   -3.4599    0.0000 C   0  0  0  0  0  0  0  0  0  0  0  0
    5.6530   -4.8157    0.0000 C   0  0  0  0  0  0  0  0  0  0  0  0
    5.0630   -5.4600    0.0000 O   0  0  0  0  0  0  0  0  0  0  0  0
    4.2756   -3.8396    0.0000 C   0  0  0  0  0  0  0  0  0  0  0  0
    4.2821   -4.6921    0.0000 O   0  0  0  0  0  0  0  0  0  0  0  0
   13.5989   -7.2062    0.0000 C   0  0  0  0  0  0  0  0  0  0  0  0
   13.1000   -7.9979    0.0000 N   0  0  0  0  0  0  0  0  0  0  0  0
    5.0055   -3.4395    0.0000 N   0  0  0  0  0  0  0  0  0  0  0  0
    2.0564   -3.5141    0.0000 N   0  0  0  0  0  0  0  0  0  0  0  0
   13.2432   -6.5727    0.0000 N   0  0  0  0  0  0  0  0  0  0  0  0
    4.2821   -2.1866    0.0000 O   0  0  0  0  0  0  0  0  0  0  0  0
    8.2322   -4.8222    0.0000 N   0  0  0  0  0  0  0  0  0  0  0  0
    7.9849   -4.0283    0.0000 N   0  0  0  0  0  0  0  0  0  0  0  0
    8.6748   -3.5337    0.0000 N   0  0  0  0  0  0  0  0  0  0  0  0
    6.5077   -4.8612    0.0000 N   0  0  0  0  0  0  0  0  0  0  0  0
   10.5880   -5.4274    0.0000 N   0  0  0  0  0  0  0  0  0  0  0  0
    3.5662   -2.6031    0.0000 N   0  0  0  0  0  0  0  0  0  0  0  0
    1.9197   -4.8547    0.0000 S   0  0  0  0  0  0  0  0  0  0  0  0
    7.3858   -4.8846    0.0000 O   0  0  0  0  0  0  0  0  0  0  0  0
    6.9351   -5.3120    0.0000 S   0  0  0  0  0  0  0  0  0  0  0  0
    6.4843   -5.7393    0.0000 O   0  0  0  0  0  0  0  0  0  0  0  0
    7.3624   -5.7627    0.0000 O   0  0  0  0  0  0  0  0  0  0  0  0
  1  5  2  0  0  0  0
  2  5  1  0  0  0  0
  6  7  1  0  0  0  0
  5  7  1  0  0  0  0
  6  8  1  0  0  0  0
  7  8  1  0  0  0  0
 10 11  1  0  0  0  0
 11 12  1  0  0  0  0
 13 14  1  0  0  0  0
  3 15  1  0  0  0  0
  9 16  2  0  0  0  0
 14 17  1  0  0  0  0
 18 19  1  0  0  0  0
 19 20  1  0  0  0  0
  9 21  1  0  0  0  0
 12 22  1  0  0  0  0
 22 23  2  0  0  0  0
 21 24  1  0  0  0  0
 24 25  2  0  0  0  0
  4 26  1  0  0  0  0
 26 27  2  0  0  0  0
 12 28  1  0  0  0  0
 24 28  1  0  0  0  0
  9 29  1  0  0  0  0
 15 29  2  0  0  0  0
 20 30  1  0  0  0  0
 26 30  1  0  0  0  0
  7 31  1  0  0  0  0
 14 32  2  0  0  0  0
 10 33  1  0  0  0  0
 32 33  1  0  0  0  0
 13 34  2  0  0  0  0
 33 34  1  0  0  0  0
 11 35  1  0  0  0  0
 22 35  1  0  0  0  0
 17 36  1  0  0  0  0
 18 36  1  0  0  0  0
 21 37  2  0  0  0  0
 31 37  1  0  0  0  0
 15 38  1  0  0  0  0
 16 38  1  0  0  0  0
 35 40  1  0  0  0  0
 39 40  1  0  0  0  0
 40 41  2  0  0  0  0
 40 42  2  0  0  0  0
M  END
> <ID>
SCHEMBL21167990

> <InChIKey>
FSOUKAPORVUNCH-YNFMAFFXSA-N

> <MW>
628.64

> <Series_Name>
Series_14

$$$$
SCHEMBL21168002
  Mrv1719007231912162D 0   0.00000     0.00000     0

 41 44  0  0  0  0              1 V2000 
    5.8643   -1.4326    0.0000 O   0  0  0  0  0  0  0  0  0  0  0  0
   15.1294   -3.8761    0.0000 N   0  0  0  0  0  0  0  0  0  0  0  0
    0.3949   -4.2242    0.0000 N   0  0  0  0  0  0  0  0  0  0  0  0
    4.2509   -1.4192    0.0000 C   0  0  0  0  0  0  0  0  0  0  0  0
    3.8158   -0.7230    0.0000 C   0  0  0  0  0  0  0  0  0  0  0  0
    3.4409   -1.4192    0.0000 C   0  0  0  0  0  0  0  0  0  0  0  0
    2.8117   -3.9587    0.0000 C   0  0  0  0  0  0  0  0  0  0  0  0
    7.0693   -3.6820    0.0000 C   0  0  0  0  0  0  0  0  0  0  0  0
    6.4579   -4.1595    0.0000 C   0  0  0  0  0  0  0  0  0  0  0  0
    9.9613   -3.6954    0.0000 C   0  0  0  0  0  0  0  0  0  0  0  0
    9.3052   -4.1193    0.0000 C   0  0  0  0  0  0  0  0  0  0  0  0
    5.6323   -4.1505    0.0000 C   0  0  0  0  0  0  0  0  0  0  0  0
   14.0583   -4.2577    0.0000 C   0  0  0  0  0  0  0  0  0  0  0  0
   13.2550   -3.7757    0.0000 C   0  0  0  0  0  0  0  0  0  0  0  0
    1.4906   -4.2442    0.0000 C   0  0  0  0  0  0  0  0  0  0  0  0
    2.7314   -4.7798    0.0000 C   0  0  0  0  0  0  0  0  0  0  0  0
    9.0375   -4.9271    0.0000 C   0  0  0  0  0  0  0  0  0  0  0  0
   11.6082   -3.7556    0.0000 C   0  0  0  0  0  0  0  0  0  0  0  0
   11.6416   -2.7983    0.0000 O   0  0  0  0  0  0  0  0  0  0  0  0
    4.9673   -1.0309    0.0000 C   0  0  0  0  0  0  0  0  0  0  0  0
    4.9874   -0.1673    0.0000 O   0  0  0  0  0  0  0  0  0  0  0  0
    4.2577   -3.9497    0.0000 C   0  0  0  0  0  0  0  0  0  0  0  0
    4.2643   -4.8200    0.0000 O   0  0  0  0  0  0  0  0  0  0  0  0
    5.0409   -5.5899    0.0000 O   0  0  0  0  0  0  0  0  0  0  0  0
    3.5213   -3.5615    0.0000 C   0  0  0  0  0  0  0  0  0  0  0  0
    5.6569   -4.9673    0.0000 C   0  0  0  0  0  0  0  0  0  0  0  0
    3.5280   -2.6912    0.0000 N   0  0  0  0  0  0  0  0  0  0  0  0
    8.6358   -3.6150    0.0000 N   0  0  0  0  0  0  0  0  0  0  0  0
   12.4114   -4.2375    0.0000 O   0  0  0  0  0  0  0  0  0  0  0  0
   10.7888   -4.1843    0.0000 N   0  0  0  0  0  0  0  0  0  0  0  0
    7.9664   -4.1171    0.0000 N   0  0  0  0  0  0  0  0  0  0  0  0
    2.0418   -3.6217    0.0000 N   0  0  0  0  0  0  0  0  0  0  0  0
    4.8445   -3.6144    0.0000 N   0  0  0  0  0  0  0  0  0  0  0  0
    6.4668   -4.9941    0.0000 N   0  0  0  0  0  0  0  0  0  0  0  0
    1.9012   -4.9874    0.0000 S   0  0  0  0  0  0  0  0  0  0  0  0
    8.2141   -4.9204    0.0000 N   0  0  0  0  0  0  0  0  0  0  0  0
    4.2643   -2.2828    0.0000 O   0  0  0  0  0  0  0  0  0  0  0  0
    7.3780   -5.0042    0.0000 O   0  0  0  0  0  0  0  0  0  0  0  0
    6.9174   -5.4547    0.0000 S   0  0  0  0  0  0  0  0  0  0  0  0
    6.4567   -5.9053    0.0000 O   0  0  0  0  0  0  0  0  0  0  0  0
    7.3680   -5.9155    0.0000 O   0  0  0  0  0  0  0  0  0  0  0  0
  4  5  1  0  0  0  0
  5  6  1  0  0  0  0
  4  6  1  0  0  0  0
  8  9  1  0  0  0  0
 10 11  1  0  0  0  0
  9 12  1  0  0  0  0
  2 13  1  0  0  0  0
 13 14  1  0  0  0  0
  3 15  1  0  0  0  0
  7 16  2  0  0  0  0
 11 17  1  0  0  0  0
 18 19  2  0  0  0  0
  4 20  1  0  0  0  0
  1 20  1  0  0  0  0
 20 21  2  0  0  0  0
 22 23  2  0  0  0  0
 22 25  1  0  0  0  0
  7 25  1  0  0  0  0
 12 26  1  0  0  0  0
 24 26  2  0  0  0  0
 25 27  2  0  0  0  0
 11 28  2  0  0  0  0
 14 29  1  0  0  0  0
 18 29  1  0  0  0  0
 10 30  1  0  0  0  0
 18 30  1  0  0  0  0
  8 31  1  0  0  0  0
 28 31  1  0  0  0  0
  7 32  1  0  0  0  0
 15 32  2  0  0  0  0
 12 33  1  0  0  0  0
 22 33  1  0  0  0  0
  9 34  1  0  0  0  0
 26 34  1  0  0  0  0
 15 35  1  0  0  0  0
 16 35  1  0  0  0  0
 17 36  2  0  0  0  0
 31 36  1  0  0  0  0
  4 37  1  0  0  0  0
 27 37  1  0  0  0  0
 34 39  1  0  0  0  0
 38 39  1  0  0  0  0
 39 40  2  0  0  0  0
 39 41  2  0  0  0  0
M  END
> <ID>
SCHEMBL21168002

> <InChIKey>
RPECVHVCSIOLJG-PPDIBHTLSA-N

> <MW>
616.58

> <Series_Name>
Series_14

$$$$
SCHEMBL21168003
  Mrv1719007231912162D 0   0.00000     0.00000     0

 40 44  0  0  0  0              1 V2000 
    5.7882   -1.3897    0.0000 O   0  0  0  0  0  0  0  0  0  0  0  0
    0.3891   -4.1970    0.0000 N   0  0  0  0  0  0  0  0  0  0  0  0
    3.7801   -0.6809    0.0000 C   0  0  0  0  0  0  0  0  0  0  0  0
    3.3909   -1.3758    0.0000 C   0  0  0  0  0  0  0  0  0  0  0  0
    4.1657   -1.3793    0.0000 C   0  0  0  0  0  0  0  0  0  0  0  0
    2.7655   -3.9422    0.0000 C   0  0  0  0  0  0  0  0  0  0  0  0
    5.5636   -4.1367    0.0000 C   0  0  0  0  0  0  0  0  0  0  0  0
    6.9764   -3.6828    0.0000 C   0  0  0  0  0  0  0  0  0  0  0  0
    6.3557   -4.1414    0.0000 C   0  0  0  0  0  0  0  0  0  0  0  0
    9.1675   -4.1367    0.0000 C   0  0  0  0  0  0  0  0  0  0  0  0
    1.4638   -4.2387    0.0000 C   0  0  0  0  0  0  0  0  0  0  0  0
    9.9643   -3.8773    0.0000 C   0  0  0  0  0  0  0  0  0  0  0  0
    2.6822   -4.7945    0.0000 C   0  0  0  0  0  0  0  0  0  0  0  0
    8.9081   -4.9474    0.0000 C   0  0  0  0  0  0  0  0  0  0  0  0
   12.1277   -5.1976    0.0000 C   0  0  0  0  0  0  0  0  0  0  0  0
   11.7154   -4.4471    0.0000 C   0  0  0  0  0  0  0  0  0  0  0  0
   12.9106   -5.4199    0.0000 C   0  0  0  0  0  0  0  0  0  0  0  0
   11.9100   -6.0175    0.0000 C   0  0  0  0  0  0  0  0  0  0  0  0
    5.5890   -4.9613    0.0000 C   0  0  0  0  0  0  0  0  0  0  0  0
    4.9752   -5.5936    0.0000 O   0  0  0  0  0  0  0  0  0  0  0  0
    4.2039   -4.8084    0.0000 O   0  0  0  0  0  0  0  0  0  0  0  0
    3.4813   -3.5415    0.0000 C   0  0  0  0  0  0  0  0  0  0  0  0
    4.9127   -0.9682    0.0000 C   0  0  0  0  0  0  0  0  0  0  0  0
    4.9196   -0.1737    0.0000 O   0  0  0  0  0  0  0  0  0  0  0  0
    4.1877   -3.9190    0.0000 C   0  0  0  0  0  0  0  0  0  0  0  0
    3.4882   -2.6683    0.0000 N   0  0  0  0  0  0  0  0  0  0  0  0
   12.8758   -6.2399    0.0000 N   0  0  0  0  0  0  0  0  0  0  0  0
    5.0246   -3.4964    0.0000 N   0  0  0  0  0  0  0  0  0  0  0  0
   10.5341   -4.4471    0.0000 N   0  0  0  0  0  0  0  0  0  0  0  0
    8.0812   -4.9544    0.0000 N   0  0  0  0  0  0  0  0  0  0  0  0
    6.3788   -4.9961    0.0000 N   0  0  0  0  0  0  0  0  0  0  0  0
    7.8241   -4.1275    0.0000 N   0  0  0  0  0  0  0  0  0  0  0  0
    2.0221   -3.5994    0.0000 N   0  0  0  0  0  0  0  0  0  0  0  0
    1.8761   -4.9891    0.0000 S   0  0  0  0  0  0  0  0  0  0  0  0
    8.4912   -3.6272    0.0000 N   0  0  0  0  0  0  0  0  0  0  0  0
    4.2039   -2.2444    0.0000 O   0  0  0  0  0  0  0  0  0  0  0  0
    7.2905   -5.0038    0.0000 O   0  0  0  0  0  0  0  0  0  0  0  0
    6.8308   -5.4558    0.0000 S   0  0  0  0  0  0  0  0  0  0  0  0
    6.3712   -5.9078    0.0000 O   0  0  0  0  0  0  0  0  0  0  0  0
    7.2828   -5.9154    0.0000 O   0  0  0  0  0  0  0  0  0  0  0  0
  3  4  1  0  0  0  0
  4  5  1  0  0  0  0
  3  5  1  0  0  0  0
  8  9  1  0  0  0  0
  7  9  1  0  0  0  0
  2 11  1  0  0  0  0
 10 12  1  0  0  0  0
  6 13  2  0  0  0  0
 10 14  1  0  0  0  0
 15 16  1  0  0  0  0
 15 17  1  0  0  0  0
 15 18  1  0  0  0  0
  7 19  1  0  0  0  0
 19 20  2  0  0  0  0
  6 22  1  0  0  0  0
  5 23  1  0  0  0  0
  1 23  1  0  0  0  0
 23 24  2  0  0  0  0
 21 25  2  0  0  0  0
 22 25  1  0  0  0  0
 22 26  2  0  0  0  0
 17 27  1  0  0  0  0
 18 27  1  0  0  0  0
  7 28  1  0  0  0  0
 25 28  1  0  0  0  0
 12 29  1  0  0  0  0
 16 29  1  0  0  0  0
 14 30  2  0  0  0  0
  9 31  1  0  0  0  0
 19 31  1  0  0  0  0
  8 32  1  0  0  0  0
 30 32  1  0  0  0  0
  6 33  1  0  0  0  0
 11 33  2  0  0  0  0
 11 34  1  0  0  0  0
 13 34  1  0  0  0  0
 10 35  2  0  0  0  0
 32 35  1  0  0  0  0
  5 36  1  0  0  0  0
 26 36  1  0  0  0  0
 31 38  1  0  0  0  0
 37 38  1  0  0  0  0
 38 39  2  0  0  0  0
 38 40  2  0  0  0  0
M  END
> <ID>
SCHEMBL21168003

> <InChIKey>
XAIPLMIZGHHMFY-MUXKCCDJSA-N

> <MW>
598.61

> <Series_Name>
Series_14

$$$$
SCHEMBL21168008
  Mrv1719007231912162D 0   0.00000     0.00000     0

 38 41  0  0  0  0              1 V2000 
    5.6363    4.0695    0.0000 O   0  0  0  0  0  0  0  0  0  0  0  0
   11.4251    1.6431    0.0000 N   0  0  0  0  0  0  0  0  0  0  0  0
    0.0000    1.2964    0.0000 N   0  0  0  0  0  0  0  0  0  0  0  0
    3.9586    4.0973    0.0000 C   0  0  0  0  0  0  0  0  0  0  0  0
    3.5496    4.7767    0.0000 C   0  0  0  0  0  0  0  0  0  0  0  0
    3.1336    4.1042    0.0000 C   0  0  0  0  0  0  0  0  0  0  0  0
    8.8184    2.8909    0.0000 C   0  0  0  0  0  0  0  0  0  0  0  0
    8.8092    2.0821    0.0000 C   0  0  0  0  0  0  0  0  0  0  0  0
    6.6416    2.4611    0.0000 C   0  0  0  0  0  0  0  0  0  0  0  0
    6.2440    1.7539    0.0000 C   0  0  0  0  0  0  0  0  0  0  0  0
    3.3185    1.9481    0.0000 C   0  0  0  0  0  0  0  0  0  0  0  0
    9.4839    1.5875    0.0000 C   0  0  0  0  0  0  0  0  0  0  0  0
    2.4958    1.5506    0.0000 C   0  0  0  0  0  0  0  0  0  0  0  0
    5.4352    1.5506    0.0000 C   0  0  0  0  0  0  0  0  0  0  0  0
    1.1693    1.2687    0.0000 C   0  0  0  0  0  0  0  0  0  0  0  0
    2.4126    0.7279    0.0000 C   0  0  0  0  0  0  0  0  0  0  0  0
    5.6664    0.7810    0.0000 C   0  0  0  0  0  0  0  0  0  0  0  0
    5.2342    0.0000    0.0000 O   0  0  0  0  0  0  0  0  0  0  0  0
   10.9468    1.4605    0.0000 C   0  0  0  0  0  0  0  0  0  0  0  0
   10.6487    0.5962    0.0000 N   0  0  0  0  0  0  0  0  0  0  0  0
    4.6935    4.4716    0.0000 C   0  0  0  0  0  0  0  0  0  0  0  0
    4.6935    5.3312    0.0000 O   0  0  0  0  0  0  0  0  0  0  0  0
    3.9770    1.5737    0.0000 C   0  0  0  0  0  0  0  0  0  0  0  0
    3.9725    0.7002    0.0000 O   0  0  0  0  0  0  0  0  0  0  0  0
    7.5150    2.4958    0.0000 N   0  0  0  0  0  0  0  0  0  0  0  0
    3.2376    2.8077    0.0000 N   0  0  0  0  0  0  0  0  0  0  0  0
    4.7045    1.9595    0.0000 N   0  0  0  0  0  0  0  0  0  0  0  0
    6.4613    0.9498    0.0000 N   0  0  0  0  0  0  0  0  0  0  0  0
   10.2365    1.9068    0.0000 N   0  0  0  0  0  0  0  0  0  0  0  0
    1.7401    1.8927    0.0000 N   0  0  0  0  0  0  0  0  0  0  0  0
    8.0073    1.8095    0.0000 N   0  0  0  0  0  0  0  0  0  0  0  0
    8.0073    3.1752    0.0000 N   0  0  0  0  0  0  0  0  0  0  0  0
    3.9655    3.2238    0.0000 O   0  0  0  0  0  0  0  0  0  0  0  0
    1.5875    0.5339    0.0000 S   0  0  0  0  0  0  0  0  0  0  0  0
    7.2375    1.1368    0.0000 O   0  0  0  0  0  0  0  0  0  0  0  0
    6.9429    0.6552    0.0000 S   0  0  0  0  0  0  0  0  0  0  0  0
    6.6483    0.1736    0.0000 O   0  0  0  0  0  0  0  0  0  0  0  0
    7.4245    0.3606    0.0000 O   0  0  0  0  0  0  0  0  0  0  0  0
  4  5  1  0  0  0  0
  5  6  1  0  0  0  0
  4  6  1  0  0  0  0
  7  8  1  0  0  0  0
  9 10  1  0  0  0  0
  8 12  1  0  0  0  0
 11 13  1  0  0  0  0
 10 14  1  0  0  0  0
  3 15  1  0  0  0  0
 13 16  2  0  0  0  0
 14 17  1  0  0  0  0
 17 18  2  0  0  0  0
  2 19  1  0  0  0  0
 19 20  2  0  0  0  0
  4 21  1  0  0  0  0
  1 21  1  0  0  0  0
 21 22  2  0  0  0  0
 11 23  1  0  0  0  0
 23 24  2  0  0  0  0
  9 25  1  0  0  0  0
 11 26  2  0  0  0  0
 14 27  1  0  0  0  0
 23 27  1  0  0  0  0
 10 28  1  0  0  0  0
 17 28  1  0  0  0  0
 12 29  1  0  0  0  0
 19 29  1  0  0  0  0
 13 30  1  0  0  0  0
 15 30  2  0  0  0  0
  8 31  2  0  0  0  0
 25 31  1  0  0  0  0
  7 32  2  0  0  0  0
 25 32  1  0  0  0  0
  4 33  1  0  0  0  0
 26 33  1  0  0  0  0
 15 34  1  0  0  0  0
 16 34  1  0  0  0  0
 28 36  1  0  0  0  0
 35 36  1  0  0  0  0
 36 37  2  0  0  0  0
 36 38  2  0  0  0  0
M  END
> <ID>
SCHEMBL21168008

> <InChIKey>
RVFJXXQHIGQYLL-KALUYTGESA-N

> <MW>
571.54

> <Series_Name>
Series_14

$$$$
SCHEMBL21168009
  Mrv1719007231912162D 0   0.00000     0.00000     0

 43 47  0  0  0  0              1 V2000 
    4.9954   -0.1711    0.0000 O   0  0  0  0  0  0  0  0  0  0  0  0
    5.8839   -1.4545    0.0000 O   0  0  0  0  0  0  0  0  0  0  0  0
   14.5453   -3.9489    0.0000 N   0  0  0  0  0  0  0  0  0  0  0  0
    0.3949   -4.2649    0.0000 N   0  0  0  0  0  0  0  0  0  0  0  0
    4.9318   -1.0487    0.0000 C   0  0  0  0  0  0  0  0  0  0  0  0
    3.8436   -0.7284    0.0000 C   0  0  0  0  0  0  0  0  0  0  0  0
    4.2484   -1.4348    0.0000 C   0  0  0  0  0  0  0  0  0  0  0  0
    3.4619   -1.3822    0.0000 C   0  0  0  0  0  0  0  0  0  0  0  0
    3.4838   -3.5935    0.0000 C   0  0  0  0  0  0  0  0  0  0  0  0
    2.8037   -4.0235    0.0000 C   0  0  0  0  0  0  0  0  0  0  0  0
   13.4483   -4.1639    0.0000 C   0  0  0  0  0  0  0  0  0  0  0  0
   12.8209   -3.6725    0.0000 C   0  0  0  0  0  0  0  0  0  0  0  0
    7.0818   -3.6988    0.0000 C   0  0  0  0  0  0  0  0  0  0  0  0
    6.4763   -4.1947    0.0000 C   0  0  0  0  0  0  0  0  0  0  0  0
    9.9118   -3.7383    0.0000 C   0  0  0  0  0  0  0  0  0  0  0  0
    9.2405   -4.1683    0.0000 C   0  0  0  0  0  0  0  0  0  0  0  0
    5.6514   -4.1815    0.0000 C   0  0  0  0  0  0  0  0  0  0  0  0
    1.4918   -4.2912    0.0000 C   0  0  0  0  0  0  0  0  0  0  0  0
   13.1894   -4.9757    0.0000 C   0  0  0  0  0  0  0  0  0  0  0  0
   12.3865   -4.9757    0.0000 C   0  0  0  0  0  0  0  0  0  0  0  0
    2.7248   -4.8309    0.0000 C   0  0  0  0  0  0  0  0  0  0  0  0
    8.9773   -4.9757    0.0000 C   0  0  0  0  0  0  0  0  0  0  0  0
    4.2780   -4.8703    0.0000 O   0  0  0  0  0  0  0  0  0  0  0  0
   11.3861   -3.7493    0.0000 C   0  0  0  0  0  0  0  0  0  0  0  0
   11.5572   -2.8893    0.0000 N   0  0  0  0  0  0  0  0  0  0  0  0
    5.0481   -5.6404    0.0000 O   0  0  0  0  0  0  0  0  0  0  0  0
    4.2605   -3.9840    0.0000 C   0  0  0  0  0  0  0  0  0  0  0  0
    5.6579   -5.0261    0.0000 C   0  0  0  0  0  0  0  0  0  0  0  0
    4.9975   -3.5851    0.0000 N   0  0  0  0  0  0  0  0  0  0  0  0
    7.8913   -4.1661    0.0000 N   0  0  0  0  0  0  0  0  0  0  0  0
    2.0469   -3.6659    0.0000 N   0  0  0  0  0  0  0  0  0  0  0  0
    8.5758   -3.6593    0.0000 N   0  0  0  0  0  0  0  0  0  0  0  0
    3.5475   -2.7248    0.0000 N   0  0  0  0  0  0  0  0  0  0  0  0
   10.6541   -4.1797    0.0000 N   0  0  0  0  0  0  0  0  0  0  0  0
   12.1101   -4.1727    0.0000 N   0  0  0  0  0  0  0  0  0  0  0  0
    4.2780   -2.3101    0.0000 O   0  0  0  0  0  0  0  0  0  0  0  0
    6.4894   -5.0481    0.0000 N   0  0  0  0  0  0  0  0  0  0  0  0
    8.1480   -4.9757    0.0000 N   0  0  0  0  0  0  0  0  0  0  0  0
    1.9153   -5.0415    0.0000 S   0  0  0  0  0  0  0  0  0  0  0  0
    7.3752   -5.0529    0.0000 O   0  0  0  0  0  0  0  0  0  0  0  0
    6.9299   -5.4934    0.0000 S   0  0  0  0  0  0  0  0  0  0  0  0
    6.4846   -5.9339    0.0000 O   0  0  0  0  0  0  0  0  0  0  0  0
    7.3704   -5.9387    0.0000 O   0  0  0  0  0  0  0  0  0  0  0  0
  1  5  2  0  0  0  0
  2  5  1  0  0  0  0
  6  7  1  0  0  0  0
  5  7  1  0  0  0  0
  6  8  1  0  0  0  0
  7  8  1  0  0  0  0
  9 10  1  0  0  0  0
  3 11  1  0  0  0  0
 11 12  1  0  0  0  0
 13 14  1  0  0  0  0
 15 16  1  0  0  0  0
 14 17  1  0  0  0  0
  4 18  1  0  0  0  0
 11 19  1  0  0  0  0
 19 20  1  0  0  0  0
 10 21  2  0  0  0  0
 16 22  1  0  0  0  0
 24 25  2  0  0  0  0
  9 27  1  0  0  0  0
 23 27  2  0  0  0  0
 17 28  1  0  0  0  0
 26 28  2  0  0  0  0
 17 29  1  0  0  0  0
 27 29  1  0  0  0  0
 13 30  1  0  0  0  0
 10 31  1  0  0  0  0
 18 31  2  0  0  0  0
 16 32  2  0  0  0  0
 30 32  1  0  0  0  0
  9 33  2  0  0  0  0
 15 34  1  0  0  0  0
 24 34  1  0  0  0  0
 12 35  1  0  0  0  0
 20 35  1  0  0  0  0
 24 35  1  0  0  0  0
  7 36  1  0  0  0  0
 33 36  1  0  0  0  0
 14 37  1  0  0  0  0
 28 37  1  0  0  0  0
 22 38  2  0  0  0  0
 30 38  1  0  0  0  0
 18 39  1  0  0  0  0
 21 39  1  0  0  0  0
 37 41  1  0  0  0  0
 40 41  1  0  0  0  0
 41 42  2  0  0  0  0
 41 43  2  0  0  0  0
M  END
> <ID>
SCHEMBL21168009

> <InChIKey>
KYGZQMLVJZXNRQ-CPDSRJINSA-N

> <MW>
640.65

> <Series_Name>
Series_14

$$$$
SCHEMBL21168020
  Mrv1719007231912172D 0   0.00000     0.00000     0

 39 42  0  0  0  0              1 V2000 
    5.8290   -1.4264    0.0000 O   0  0  0  0  0  0  0  0  0  0  0  0
   11.5673   -2.7881    0.0000 O   0  0  0  0  0  0  0  0  0  0  0  0
   13.4218   -3.8190    0.0000 N   0  0  0  0  0  0  0  0  0  0  0  0
    0.3890   -4.2470    0.0000 N   0  0  0  0  0  0  0  0  0  0  0  0
    4.2081   -1.4135    0.0000 C   0  0  0  0  0  0  0  0  0  0  0  0
    3.8126   -0.7262    0.0000 C   0  0  0  0  0  0  0  0  0  0  0  0
    3.4300   -1.4135    0.0000 C   0  0  0  0  0  0  0  0  0  0  0  0
   11.4593   -3.7434    0.0000 C   0  0  0  0  0  0  0  0  0  0  0  0
    2.7751   -3.9509    0.0000 C   0  0  0  0  0  0  0  0  0  0  0  0
    7.0545   -3.6569    0.0000 C   0  0  0  0  0  0  0  0  0  0  0  0
    6.4191   -4.1325    0.0000 C   0  0  0  0  0  0  0  0  0  0  0  0
    9.9074   -3.6829    0.0000 C   0  0  0  0  0  0  0  0  0  0  0  0
    9.2331   -4.1065    0.0000 C   0  0  0  0  0  0  0  0  0  0  0  0
   12.3065   -4.2016    0.0000 C   0  0  0  0  0  0  0  0  0  0  0  0
    5.5848   -4.1238    0.0000 C   0  0  0  0  0  0  0  0  0  0  0  0
    1.4826   -4.2232    0.0000 C   0  0  0  0  0  0  0  0  0  0  0  0
    2.6973   -4.7722    0.0000 C   0  0  0  0  0  0  0  0  0  0  0  0
    8.9608   -4.9148    0.0000 C   0  0  0  0  0  0  0  0  0  0  0  0
    4.2146   -3.9314    0.0000 C   0  0  0  0  0  0  0  0  0  0  0  0
    4.2211   -4.8046    0.0000 O   0  0  0  0  0  0  0  0  0  0  0  0
    5.5676   -4.9278    0.0000 C   0  0  0  0  0  0  0  0  0  0  0  0
    5.0121   -5.5632    0.0000 O   0  0  0  0  0  0  0  0  0  0  0  0
    4.9473   -1.0244    0.0000 C   0  0  0  0  0  0  0  0  0  0  0  0
    4.9602   -0.1686    0.0000 O   0  0  0  0  0  0  0  0  0  0  0  0
    3.5143   -3.5510    0.0000 C   0  0  0  0  0  0  0  0  0  0  0  0
   10.7358   -4.1724    0.0000 N   0  0  0  0  0  0  0  0  0  0  0  0
    4.9604   -3.5356    0.0000 N   0  0  0  0  0  0  0  0  0  0  0  0
    7.9039   -4.0914    0.0000 N   0  0  0  0  0  0  0  0  0  0  0  0
    2.0295   -3.6115    0.0000 N   0  0  0  0  0  0  0  0  0  0  0  0
    8.5782   -3.6051    0.0000 N   0  0  0  0  0  0  0  0  0  0  0  0
    3.5208   -2.6844    0.0000 N   0  0  0  0  0  0  0  0  0  0  0  0
    8.1568   -4.9019    0.0000 N   0  0  0  0  0  0  0  0  0  0  0  0
    6.4321   -4.9732    0.0000 N   0  0  0  0  0  0  0  0  0  0  0  0
    1.8868   -4.9732    0.0000 S   0  0  0  0  0  0  0  0  0  0  0  0
    4.2211   -2.2759    0.0000 O   0  0  0  0  0  0  0  0  0  0  0  0
    7.3358   -4.9899    0.0000 O   0  0  0  0  0  0  0  0  0  0  0  0
    6.8756   -5.4334    0.0000 S   0  0  0  0  0  0  0  0  0  0  0  0
    6.4154   -5.8769    0.0000 O   0  0  0  0  0  0  0  0  0  0  0  0
    7.3191   -5.8936    0.0000 O   0  0  0  0  0  0  0  0  0  0  0  0
  5  6  1  0  0  0  0
  6  7  1  0  0  0  0
  5  7  1  0  0  0  0
  2  8  2  0  0  0  0
 10 11  1  0  0  0  0
 12 13  1  0  0  0  0
  3 14  1  0  0  0  0
  8 14  1  0  0  0  0
 11 15  1  0  0  0  0
  4 16  1  0  0  0  0
  9 17  2  0  0  0  0
 13 18  1  0  0  0  0
 19 20  2  0  0  0  0
 15 21  1  0  0  0  0
 21 22  2  0  0  0  0
  5 23  1  0  0  0  0
  1 23  1  0  0  0  0
 23 24  2  0  0  0  0
 19 25  1  0  0  0  0
  9 25  1  0  0  0  0
  8 26  1  0  0  0  0
 12 26  1  0  0  0  0
 15 27  1  0  0  0  0
 19 27  1  0  0  0  0
 10 28  1  0  0  0  0
  9 29  1  0  0  0  0
 16 29  2  0  0  0  0
 13 30  2  0  0  0  0
 28 30  1  0  0  0  0
 25 31  2  0  0  0  0
 18 32  2  0  0  0  0
 28 32  1  0  0  0  0
 11 33  1  0  0  0  0
 21 33  1  0  0  0  0
 16 34  1  0  0  0  0
 17 34  1  0  0  0  0
  5 35  1  0  0  0  0
 31 35  1  0  0  0  0
 33 37  1  0  0  0  0
 36 37  1  0  0  0  0
 37 38  2  0  0  0  0
 37 39  2  0  0  0  0
M  END
> <ID>
SCHEMBL21168020

> <InChIKey>
XRJOARQXAOXQDU-ZRGSRPPYSA-N

> <MW>
586.56

> <Series_Name>
Series_14

$$$$
SCHEMBL21168025
  Mrv1719007231912172D 0   0.00000     0.00000     0

 39 43  0  0  0  0              1 V2000 
    5.8008   -1.4596    0.0000 O   0  0  0  0  0  0  0  0  0  0  0  0
    0.3955   -4.2847    0.0000 N   0  0  0  0  0  0  0  0  0  0  0  0
    7.7878   -5.1416    0.0000 S   0  0  0  0  0  0  0  0  0  0  0  0
    4.1811   -1.4502    0.0000 C   0  0  0  0  0  0  0  0  0  0  0  0
    3.8044   -0.7534    0.0000 C   0  0  0  0  0  0  0  0  0  0  0  0
    3.4278   -1.4690    0.0000 C   0  0  0  0  0  0  0  0  0  0  0  0
    8.9461   -3.4906    0.0000 C   0  0  0  0  0  0  0  0  0  0  0  0
    8.9461   -2.6744    0.0000 C   0  0  0  0  0  0  0  0  0  0  0  0
    3.4403   -3.6161    0.0000 C   0  0  0  0  0  0  0  0  0  0  0  0
    6.7990   -3.1264    0.0000 C   0  0  0  0  0  0  0  0  0  0  0  0
    6.4286   -3.8233    0.0000 C   0  0  0  0  0  0  0  0  0  0  0  0
    9.5676   -3.9928    0.0000 C   0  0  0  0  0  0  0  0  0  0  0  0
    2.7749   -4.0304    0.0000 C   0  0  0  0  0  0  0  0  0  0  0  0
    2.7121   -4.8591    0.0000 C   0  0  0  0  0  0  0  0  0  0  0  0
    5.6502   -4.0430    0.0000 C   0  0  0  0  0  0  0  0  0  0  0  0
    1.4753   -4.3318    0.0000 C   0  0  0  0  0  0  0  0  0  0  0  0
   12.4680   -4.3255    0.0000 C   0  0  0  0  0  0  0  0  0  0  0  0
   12.5999   -5.1605    0.0000 C   0  0  0  0  0  0  0  0  0  0  0  0
   13.3720   -5.0287    0.0000 C   0  0  0  0  0  0  0  0  0  0  0  0
   13.2402   -4.1999    0.0000 C   0  0  0  0  0  0  0  0  0  0  0  0
    5.8620   -4.8403    0.0000 C   0  0  0  0  0  0  0  0  0  0  0  0
    5.4524   -5.6219    0.0000 O   0  0  0  0  0  0  0  0  0  0  0  0
   10.7730   -5.0098    0.0000 N   0  0  0  0  0  0  0  0  0  0  0  0
    4.2140   -4.0258    0.0000 C   0  0  0  0  0  0  0  0  0  0  0  0
    4.2094   -4.9062    0.0000 O   0  0  0  0  0  0  0  0  0  0  0  0
    4.9251   -1.0390    0.0000 C   0  0  0  0  0  0  0  0  0  0  0  0
    4.9251   -0.1695    0.0000 O   0  0  0  0  0  0  0  0  0  0  0  0
   11.0084   -4.1592    0.0000 C   0  0  0  0  0  0  0  0  0  0  0  0
    7.6842   -3.0794    0.0000 N   0  0  0  0  0  0  0  0  0  0  0  0
    1.8740   -5.0851    0.0000 S   0  0  0  0  0  0  0  0  0  0  0  0
    2.0153   -3.6915    0.0000 N   0  0  0  0  0  0  0  0  0  0  0  0
   10.3855   -3.6714    0.0000 N   0  0  0  0  0  0  0  0  0  0  0  0
    6.6483   -4.6520    0.0000 N   0  0  0  0  0  0  0  0  0  0  0  0
   11.7532   -3.8386    0.0000 N   0  0  0  0  0  0  0  0  0  0  0  0
    8.1551   -3.7762    0.0000 N   0  0  0  0  0  0  0  0  0  0  0  0
    4.9251   -3.6067    0.0000 N   0  0  0  0  0  0  0  0  0  0  0  0
    3.4937   -2.7592    0.0000 N   0  0  0  0  0  0  0  0  0  0  0  0
    8.1551   -2.3730    0.0000 N   0  0  0  0  0  0  0  0  0  0  0  0
    4.2094   -2.3260    0.0000 O   0  0  0  0  0  0  0  0  0  0  0  0
  4  5  1  0  0  0  0
  5  6  1  0  0  0  0
  4  6  1  0  0  0  0
  7  8  1  0  0  0  0
 10 11  1  0  0  0  0
  7 12  1  0  0  0  0
  9 13  1  0  0  0  0
 13 14  2  0  0  0  0
 11 15  1  0  0  0  0
  2 16  1  0  0  0  0
 17 18  1  0  0  0  0
 18 19  1  0  0  0  0
 19 20  1  0  0  0  0
 17 20  1  0  0  0  0
 15 21  1  0  0  0  0
 21 22  2  0  0  0  0
  9 24  1  0  0  0  0
 24 25  2  0  0  0  0
  1 26  1  0  0  0  0
  4 26  1  0  0  0  0
 26 27  2  0  0  0  0
 23 28  2  0  0  0  0
 10 29  1  0  0  0  0
 14 30  1  0  0  0  0
 16 30  1  0  0  0  0
 13 31  1  0  0  0  0
 16 31  2  0  0  0  0
 12 32  1  0  0  0  0
 28 32  1  0  0  0  0
  3 33  1  0  0  0  0
 11 33  1  0  0  0  0
 21 33  1  0  0  0  0
 17 34  1  0  0  0  0
 28 34  1  0  0  0  0
  7 35  2  0  0  0  0
 29 35  1  0  0  0  0
 15 36  1  0  0  0  0
 24 36  1  0  0  0  0
  9 37  2  0  0  0  0
  8 38  2  0  0  0  0
 29 38  1  0  0  0  0
  4 39  1  0  0  0  0
 37 39  1  0  0  0  0
M  END
> <ID>
SCHEMBL21168025

> <InChIKey>
AUPNOGVIZQKFEK-CPDSRJINSA-N

> <MW>
577.64

> <Series_Name>
Series_14

$$$$
SCHEMBL21168028
  Mrv1719007231912182D 0   0.00000     0.00000     0

 38 41  0  0  0  0              1 V2000 
    4.4811    5.4102    0.0000 C   0  0  0  0  0  0  0  0  0  0  0  0
    5.3408    4.1336    0.0000 O   0  0  0  0  0  0  0  0  0  0  0  0
   10.9768    1.6673    0.0000 N   0  0  0  0  0  0  0  0  0  0  0  0
    0.0000    1.2592    0.0000 N   0  0  0  0  0  0  0  0  0  0  0  0
    4.5216    4.5505    0.0000 C   0  0  0  0  0  0  0  0  0  0  0  0
    3.7386    4.1423    0.0000 C   0  0  0  0  0  0  0  0  0  0  0  0
    3.3695    4.8284    0.0000 C   0  0  0  0  0  0  0  0  0  0  0  0
    3.0047    4.1163    0.0000 C   0  0  0  0  0  0  0  0  0  0  0  0
    8.4411    2.1132    0.0000 C   0  0  0  0  0  0  0  0  0  0  0  0
    8.4411    2.9526    0.0000 C   0  0  0  0  0  0  0  0  0  0  0  0
    6.3742    2.5184    0.0000 C   0  0  0  0  0  0  0  0  0  0  0  0
    5.9632    1.7889    0.0000 C   0  0  0  0  0  0  0  0  0  0  0  0
    9.1010    1.6152    0.0000 C   0  0  0  0  0  0  0  0  0  0  0  0
    2.3448    1.5689    0.0000 C   0  0  0  0  0  0  0  0  0  0  0  0
    5.1816    1.5689    0.0000 C   0  0  0  0  0  0  0  0  0  0  0  0
    1.0653    1.2853    0.0000 C   0  0  0  0  0  0  0  0  0  0  0  0
    2.2753    0.7469    0.0000 C   0  0  0  0  0  0  0  0  0  0  0  0
    5.3885    0.7614    0.0000 C   0  0  0  0  0  0  0  0  0  0  0  0
    4.9847    0.0000    0.0000 O   0  0  0  0  0  0  0  0  0  0  0  0
    3.0568    1.9800    0.0000 C   0  0  0  0  0  0  0  0  0  0  0  0
    3.7776    0.7122    0.0000 O   0  0  0  0  0  0  0  0  0  0  0  0
   10.2473    0.6078    0.0000 N   0  0  0  0  0  0  0  0  0  0  0  0
    3.7834    1.5979    0.0000 C   0  0  0  0  0  0  0  0  0  0  0  0
   10.4993    1.4589    0.0000 C   0  0  0  0  0  0  0  0  0  0  0  0
    7.1819    2.5271    0.0000 N   0  0  0  0  0  0  0  0  0  0  0  0
    7.6681    3.2219    0.0000 N   0  0  0  0  0  0  0  0  0  0  0  0
    9.8479    1.9540    0.0000 N   0  0  0  0  0  0  0  0  0  0  0  0
    7.6681    1.8323    0.0000 N   0  0  0  0  0  0  0  0  0  0  0  0
    3.0568    2.8484    0.0000 N   0  0  0  0  0  0  0  0  0  0  0  0
    1.4676    0.5384    0.0000 S   0  0  0  0  0  0  0  0  0  0  0  0
    4.4911    1.9916    0.0000 N   0  0  0  0  0  0  0  0  0  0  0  0
    1.6065    1.9279    0.0000 N   0  0  0  0  0  0  0  0  0  0  0  0
    6.1745    0.9727    0.0000 N   0  0  0  0  0  0  0  0  0  0  0  0
    3.7689    3.2740    0.0000 O   0  0  0  0  0  0  0  0  0  0  0  0
    6.9613    1.1802    0.0000 O   0  0  0  0  0  0  0  0  0  0  0  0
    6.6716    0.6831    0.0000 S   0  0  0  0  0  0  0  0  0  0  0  0
    6.3820    0.1859    0.0000 O   0  0  0  0  0  0  0  0  0  0  0  0
    7.1688    0.3934    0.0000 O   0  0  0  0  0  0  0  0  0  0  0  0
  1  5  2  0  0  0  0
  2  5  1  0  0  0  0
  5  6  1  0  0  0  0
  6  7  1  0  0  0  0
  7  8  1  0  0  0  0
  6  8  1  0  0  0  0
  9 10  1  0  0  0  0
 11 12  1  0  0  0  0
  9 13  1  0  0  0  0
 12 15  1  0  0  0  0
  4 16  1  0  0  0  0
 14 17  2  0  0  0  0
 15 18  1  0  0  0  0
 18 19  2  0  0  0  0
 14 20  1  0  0  0  0
 20 23  1  0  0  0  0
 21 23  2  0  0  0  0
  3 24  1  0  0  0  0
 22 24  2  0  0  0  0
 11 25  1  0  0  0  0
 10 26  2  0  0  0  0
 25 26  1  0  0  0  0
 13 27  1  0  0  0  0
 24 27  1  0  0  0  0
  9 28  2  0  0  0  0
 25 28  1  0  0  0  0
 20 29  2  0  0  0  0
 16 30  1  0  0  0  0
 17 30  1  0  0  0  0
 15 31  1  0  0  0  0
 23 31  1  0  0  0  0
 14 32  1  0  0  0  0
 16 32  2  0  0  0  0
 12 33  1  0  0  0  0
 18 33  1  0  0  0  0
  6 34  1  0  0  0  0
 29 34  1  0  0  0  0
 33 36  1  0  0  0  0
 35 36  1  0  0  0  0
 36 37  2  0  0  0  0
 36 38  2  0  0  0  0
M  END
> <ID>
SCHEMBL21168028

> <InChIKey>
BNNHXZMYANTNLA-PPDIBHTLSA-N

> <MW>
569.57

> <Series_Name>
Series_14

$$$$
SCHEMBL21168039
  Mrv1719007231912182D 0   0.00000     0.00000     0

 37 40  0  0  1  0              1 V2000 
    4.9852   -5.5757    0.0000 O   0  0  0  0  0  0  0  0  0  0  0  0
    5.5617   -4.9948    0.0000 C   0  0  0  0  0  0  0  0  0  0  0  0
    5.5529   -4.1647    0.0000 C   0  0  1  0  0  0  0  0  0  0  0  0
    4.9157   -3.3610    0.0000 N   0  0  0  0  0  0  0  0  0  0  0  0
    6.3779   -4.1604    0.0000 C   0  0  1  0  0  0  0  0  0  0  0  0
    7.0029   -3.6917    0.0000 C   0  0  0  0  0  0  0  0  0  0  0  0
    7.7122   -4.1166    0.0000 N   0  0  0  0  0  0  0  0  0  0  0  0
    6.3574   -4.9852    0.0000 N   0  0  0  0  0  0  0  0  0  0  0  0
    2.0670   -3.6477    0.0000 N   0  0  0  0  0  0  0  0  0  0  0  0
    2.8279   -3.9810    0.0000 C   0  0  0  0  0  0  0  0  0  0  0  0
    3.4399   -3.6328    0.0000 C   0  0  0  0  0  0  0  0  0  0  0  0
    3.5087   -2.7271    0.0000 N   0  0  0  0  0  0  0  0  0  0  0  0
    4.1719   -3.9709    0.0000 C   0  0  0  0  0  0  0  0  0  0  0  0
    4.2209   -4.8115    0.0000 O   0  0  0  0  0  0  0  0  0  0  0  0
    2.7291   -4.8125    0.0000 C   0  0  0  0  0  0  0  0  0  0  0  0
    1.9107   -4.9852    0.0000 S   0  0  0  0  0  0  0  0  0  0  0  0
    8.3897   -3.6477    0.0000 N   0  0  0  0  0  0  0  0  0  0  0  0
    9.0505   -4.1451    0.0000 C   0  0  0  0  0  0  0  0  0  0  0  0
    9.7022   -3.7360    0.0000 C   0  0  0  0  0  0  0  0  0  0  0  0
    9.7001   -2.9094    0.0000 C   0  0  0  0  0  0  0  0  0  0  0  0
   10.4045   -4.3251    0.0000 N   0  0  0  0  0  0  0  0  0  0  0  0
    8.7935   -4.9396    0.0000 C   0  0  0  0  0  0  0  0  0  0  0  0
    7.9554   -4.9157    0.0000 N   0  0  0  0  0  0  0  0  0  0  0  0
    0.4603   -4.1688    0.0000 N   0  0  0  0  0  0  0  0  0  0  0  0
    1.5604   -4.3077    0.0000 C   0  0  0  0  0  0  0  0  0  0  0  0
   11.1053   -3.7393    0.0000 C   0  0  0  0  0  0  0  0  0  0  0  0
   11.8146   -4.1412    0.0000 C   0  0  0  0  0  0  0  0  0  0  0  0
   12.5158   -3.7379    0.0000 C   0  0  0  0  0  0  0  0  0  0  0  0
   13.3749   -4.1341    0.0000 N   0  0  0  0  0  0  0  0  0  0  0  0
    4.2209   -2.3102    0.0000 O   0  0  0  0  0  0  0  0  0  0  0  0
    4.2094   -1.4778    0.0000 C   0  0  0  0  0  0  0  0  0  0  0  0
    3.4456   -1.4601    0.0000 C   0  0  0  0  0  0  0  0  0  0  0  0
    3.8122   -0.7383    0.0000 C   0  0  0  0  0  0  0  0  0  0  0  0
    4.8724   -1.1067    0.0000 C   0  0  0  0  0  0  0  0  0  0  0  0
    4.9157   -0.2259    0.0000 O   0  0  0  0  0  0  0  0  0  0  0  0
    5.7928   -1.4764    0.0000 O   0  0  0  0  0  0  0  0  0  0  0  0
    6.7691   -5.4268    0.0000 C   0  0  0  0  0  0  0  0  0  0  0  0
  1  2  2  0  0  0  0
  3  2  1  0  0  0  0
  2  8  1  0  0  0  0
  3  4  1  1  0  0  0
  3  5  1  0  0  0  0
  4 13  1  0  0  0  0
  5  6  1  1  0  0  0
  5  8  1  0  0  0  0
  7  6  1  0  0  0  0
  7 23  1  0  0  0  0
  7 17  1  0  0  0  0
  8 37  1  0  0  0  0
  9 10  1  0  0  0  0
 10 11  1  0  0  0  0
 11 12  2  0  0  0  0
 11 13  1  0  0  0  0
 12 30  1  0  0  0  0
 13 14  2  0  0  0  0
 15 10  2  0  0  0  0
 16 15  1  0  0  0  0
 16 25  1  0  0  0  0
 17 18  2  0  0  0  0
 18 19  1  0  0  0  0
 20 19  1  0  0  0  0
 21 19  1  0  0  0  0
 22 18  1  0  0  0  0
 23 22  2  0  0  0  0
 24 25  1  0  0  0  0
 25  9  2  0  0  0  0
 26 21  1  0  0  0  0
 27 28  1  0  0  0  0
 27 26  1  0  0  0  0
 28 29  1  0  0  0  0
 31 32  1  0  0  0  0
 31 34  1  0  0  0  0
 31 30  1  0  0  0  0
 32 33  1  0  0  0  0
 33 31  1  0  0  0  0
 34 35  2  0  0  0  0
 36 34  1  0  0  0  0
M  END
> <ID>
SCHEMBL21168039

> <InChIKey>
BZXIEUDUUZWFSY-VZMLLANISA-N

> <MW>
534.6

> <Series_Name>
Series_14

$$$$
SCHEMBL21168040
  Mrv1719007231912182D 0   0.00000     0.00000     0

 40 44  0  0  0  0              1 V2000 
    4.8915   -0.1722    0.0000 O   0  0  0  0  0  0  0  0  0  0  0  0
    5.7527   -1.3865    0.0000 O   0  0  0  0  0  0  0  0  0  0  0  0
    0.3961   -4.1939    0.0000 N   0  0  0  0  0  0  0  0  0  0  0  0
   12.8660   -6.1058    0.0000 N   0  0  0  0  0  0  0  0  0  0  0  0
    4.9317   -0.9588    0.0000 C   0  0  0  0  0  0  0  0  0  0  0  0
    4.1638   -1.3607    0.0000 C   0  0  0  0  0  0  0  0  0  0  0  0
    3.7547   -0.6717    0.0000 C   0  0  0  0  0  0  0  0  0  0  0  0
    3.3758   -1.3435    0.0000 C   0  0  0  0  0  0  0  0  0  0  0  0
    2.7558   -3.9557    0.0000 C   0  0  0  0  0  0  0  0  0  0  0  0
    6.9583   -3.6686    0.0000 C   0  0  0  0  0  0  0  0  0  0  0  0
    6.3268   -4.1337    0.0000 C   0  0  0  0  0  0  0  0  0  0  0  0
    5.5173   -4.1279    0.0000 C   0  0  0  0  0  0  0  0  0  0  0  0
    8.8587   -4.9489    0.0000 C   0  0  0  0  0  0  0  0  0  0  0  0
    9.1113   -4.1337    0.0000 C   0  0  0  0  0  0  0  0  0  0  0  0
    1.4698   -4.2370    0.0000 C   0  0  0  0  0  0  0  0  0  0  0  0
    2.6869   -4.7882    0.0000 C   0  0  0  0  0  0  0  0  0  0  0  0
   11.2872   -5.4369    0.0000 C   0  0  0  0  0  0  0  0  0  0  0  0
   10.6614   -4.9087    0.0000 C   0  0  0  0  0  0  0  0  0  0  0  0
    9.3352   -5.6494    0.0000 C   0  0  0  0  0  0  0  0  0  0  0  0
   12.1082   -5.3738    0.0000 C   0  0  0  0  0  0  0  0  0  0  0  0
   10.7820   -6.0972    0.0000 C   0  0  0  0  0  0  0  0  0  0  0  0
    4.1767   -4.8054    0.0000 O   0  0  0  0  0  0  0  0  0  0  0  0
    3.4677   -3.5309    0.0000 C   0  0  0  0  0  0  0  0  0  0  0  0
    4.9518   -5.5977    0.0000 O   0  0  0  0  0  0  0  0  0  0  0  0
    4.1624   -3.9184    0.0000 C   0  0  0  0  0  0  0  0  0  0  0  0
    5.5202   -4.9661    0.0000 C   0  0  0  0  0  0  0  0  0  0  0  0
    6.3383   -4.9862    0.0000 N   0  0  0  0  0  0  0  0  0  0  0  0
    8.0434   -4.9518    0.0000 N   0  0  0  0  0  0  0  0  0  0  0  0
    1.8774   -4.9776    0.0000 S   0  0  0  0  0  0  0  0  0  0  0  0
    8.4654   -3.6342    0.0000 N   0  0  0  0  0  0  0  0  0  0  0  0
   10.1620   -5.5632    0.0000 N   0  0  0  0  0  0  0  0  0  0  0  0
    4.9512   -3.4999    0.0000 N   0  0  0  0  0  0  0  0  0  0  0  0
    7.8023   -4.1251    0.0000 N   0  0  0  0  0  0  0  0  0  0  0  0
    3.4705   -2.6611    0.0000 N   0  0  0  0  0  0  0  0  0  0  0  0
    2.0152   -3.5998    0.0000 N   0  0  0  0  0  0  0  0  0  0  0  0
    4.1767   -2.2391    0.0000 O   0  0  0  0  0  0  0  0  0  0  0  0
    7.2275   -4.9912    0.0000 O   0  0  0  0  0  0  0  0  0  0  0  0
    6.7804   -5.4333    0.0000 S   0  0  0  0  0  0  0  0  0  0  0  0
    6.3333   -5.8755    0.0000 O   0  0  0  0  0  0  0  0  0  0  0  0
    7.2227   -5.8804    0.0000 O   0  0  0  0  0  0  0  0  0  0  0  0
  1  5  2  0  0  0  0
  2  5  1  0  0  0  0
  5  6  1  0  0  0  0
  6  7  1  0  0  0  0
  7  8  1  0  0  0  0
  6  8  1  0  0  0  0
 10 11  1  0  0  0  0
 11 12  1  0  0  0  0
 13 14  1  0  0  0  0
  3 15  1  0  0  0  0
  9 16  2  0  0  0  0
 17 18  1  0  0  0  0
 13 19  1  0  0  0  0
  4 20  1  0  0  0  0
 17 20  1  0  0  0  0
 17 21  1  0  0  0  0
  9 23  1  0  0  0  0
 23 25  1  0  0  0  0
 22 25  2  0  0  0  0
 12 26  1  0  0  0  0
 24 26  2  0  0  0  0
 11 27  1  0  0  0  0
 26 27  1  0  0  0  0
 13 28  2  0  0  0  0
 15 29  1  0  0  0  0
 16 29  1  0  0  0  0
 14 30  2  0  0  0  0
 18 31  1  0  0  0  0
 19 31  1  0  0  0  0
 21 31  1  0  0  0  0
 12 32  1  0  0  0  0
 25 32  1  0  0  0  0
 10 33  1  0  0  0  0
 28 33  1  0  0  0  0
 30 33  1  0  0  0  0
 23 34  2  0  0  0  0
  9 35  1  0  0  0  0
 15 35  2  0  0  0  0
  6 36  1  0  0  0  0
 34 36  1  0  0  0  0
 27 38  1  0  0  0  0
 37 38  1  0  0  0  0
 38 39  2  0  0  0  0
 38 40  2  0  0  0  0
M  END
> <ID>
SCHEMBL21168040

> <InChIKey>
BPVMZBYILCYUQV-VYYCAZPPSA-N

> <MW>
598.61

> <Series_Name>
Series_14

$$$$
SCHEMBL21168041
  Mrv1719007231912182D 0   0.00000     0.00000     0

 40 43  0  0  0  0              1 V2000 
    4.9494   -0.1685    0.0000 O   0  0  0  0  0  0  0  0  0  0  0  0
    5.8186   -1.4281    0.0000 O   0  0  0  0  0  0  0  0  0  0  0  0
    9.8101   -2.8916    0.0000 C   0  0  0  0  0  0  0  0  0  0  0  0
   13.6862   -4.1954    0.0000 N   0  0  0  0  0  0  0  0  0  0  0  0
    0.3903   -4.2930    0.0000 N   0  0  0  0  0  0  0  0  0  0  0  0
    5.0085   -1.0289    0.0000 C   0  0  0  0  0  0  0  0  0  0  0  0
    3.7963   -0.7274    0.0000 C   0  0  0  0  0  0  0  0  0  0  0  0
    3.4238   -1.4014    0.0000 C   0  0  0  0  0  0  0  0  0  0  0  0
    4.1910   -1.4103    0.0000 C   0  0  0  0  0  0  0  0  0  0  0  0
    9.8101   -3.7135    0.0000 C   0  0  0  0  0  0  0  0  0  0  0  0
    2.7852   -3.9678    0.0000 C   0  0  0  0  0  0  0  0  0  0  0  0
    7.0072   -3.6721    0.0000 C   0  0  0  0  0  0  0  0  0  0  0  0
    6.4099   -4.1629    0.0000 C   0  0  0  0  0  0  0  0  0  0  0  0
    9.1301   -4.1452    0.0000 C   0  0  0  0  0  0  0  0  0  0  0  0
   12.7016   -3.7254    0.0000 C   0  0  0  0  0  0  0  0  0  0  0  0
   11.9743   -4.1333    0.0000 C   0  0  0  0  0  0  0  0  0  0  0  0
   11.2647   -3.7254    0.0000 C   0  0  0  0  0  0  0  0  0  0  0  0
    5.5703   -4.1629    0.0000 C   0  0  0  0  0  0  0  0  0  0  0  0
    1.4783   -4.2575    0.0000 C   0  0  0  0  0  0  0  0  0  0  0  0
    2.7142   -4.7897    0.0000 C   0  0  0  0  0  0  0  0  0  0  0  0
    8.8699   -4.9494    0.0000 C   0  0  0  0  0  0  0  0  0  0  0  0
    3.5006   -3.5834    0.0000 C   0  0  0  0  0  0  0  0  0  0  0  0
    4.2309   -4.8430    0.0000 O   0  0  0  0  0  0  0  0  0  0  0  0
    5.0026   -5.6146    0.0000 O   0  0  0  0  0  0  0  0  0  0  0  0
    4.2368   -3.9589    0.0000 C   0  0  0  0  0  0  0  0  0  0  0  0
    5.5791   -4.9908    0.0000 C   0  0  0  0  0  0  0  0  0  0  0  0
    3.5036   -2.7142    0.0000 N   0  0  0  0  0  0  0  0  0  0  0  0
   10.5463   -4.1422    0.0000 N   0  0  0  0  0  0  0  0  0  0  0  0
    8.4884   -3.6455    0.0000 N   0  0  0  0  0  0  0  0  0  0  0  0
    2.0312   -3.6455    0.0000 N   0  0  0  0  0  0  0  0  0  0  0  0
    4.9494   -3.5568    0.0000 N   0  0  0  0  0  0  0  0  0  0  0  0
    7.7966   -4.1333    0.0000 N   0  0  0  0  0  0  0  0  0  0  0  0
    4.2309   -2.2884    0.0000 O   0  0  0  0  0  0  0  0  0  0  0  0
    8.0538   -4.9494    0.0000 N   0  0  0  0  0  0  0  0  0  0  0  0
    6.4218   -5.0115    0.0000 N   0  0  0  0  0  0  0  0  0  0  0  0
    1.8893   -5.0115    0.0000 S   0  0  0  0  0  0  0  0  0  0  0  0
    7.3082   -5.0162    0.0000 O   0  0  0  0  0  0  0  0  0  0  0  0
    6.8626   -5.4570    0.0000 S   0  0  0  0  0  0  0  0  0  0  0  0
    6.4171   -5.8979    0.0000 O   0  0  0  0  0  0  0  0  0  0  0  0
    7.3035   -5.9026    0.0000 O   0  0  0  0  0  0  0  0  0  0  0  0
  1  6  2  0  0  0  0
  2  6  1  0  0  0  0
  7  8  1  0  0  0  0
  8  9  1  0  0  0  0
  7  9  1  0  0  0  0
  6  9  1  0  0  0  0
  3 10  1  0  0  0  0
 12 13  1  0  0  0  0
 10 14  1  0  0  0  0
  4 15  1  0  0  0  0
 15 16  1  0  0  0  0
 16 17  1  0  0  0  0
 13 18  1  0  0  0  0
  5 19  1  0  0  0  0
 11 20  2  0  0  0  0
 14 21  1  0  0  0  0
 11 22  1  0  0  0  0
 22 25  1  0  0  0  0
 23 25  2  0  0  0  0
 18 26  1  0  0  0  0
 24 26  2  0  0  0  0
 22 27  2  0  0  0  0
 10 28  1  0  0  0  0
 17 28  1  0  0  0  0
 14 29  2  0  0  0  0
 11 30  1  0  0  0  0
 19 30  2  0  0  0  0
 18 31  1  0  0  0  0
 25 31  1  0  0  0  0
 12 32  1  0  0  0  0
 29 32  1  0  0  0  0
  9 33  1  0  0  0  0
 27 33  1  0  0  0  0
 21 34  2  0  0  0  0
 32 34  1  0  0  0  0
 13 35  1  0  0  0  0
 26 35  1  0  0  0  0
 19 36  1  0  0  0  0
 20 36  1  0  0  0  0
 35 38  1  0  0  0  0
 37 38  1  0  0  0  0
 38 39  2  0  0  0  0
 38 40  2  0  0  0  0
M  END
> <ID>
SCHEMBL21168041

> <InChIKey>
TWAMLURDKVHTQU-MUXKCCDJSA-N

> <MW>
600.63

> <Series_Name>
Series_14

$$$$
SCHEMBL21168043
  Mrv1719007231912192D 0   0.00000     0.00000     0

 43 47  0  0  0  0              1 V2000 
   11.4081   -0.2167    0.0000 N   0  0  0  0  0  0  0  0  0  0  0  0
    4.6283   -1.7027    0.0000 O   0  0  0  0  0  0  0  0  0  0  0  0
    0.4025   -5.7350    0.0000 N   0  0  0  0  0  0  0  0  0  0  0  0
    7.8169   -7.1513    0.0000 O   0  0  0  0  0  0  0  0  0  0  0  0
   10.4639   -0.6501    0.0000 C   0  0  0  0  0  0  0  0  0  0  0  0
   10.5309   -1.4757    0.0000 C   0  0  0  0  0  0  0  0  0  0  0  0
   11.1604   -2.0123    0.0000 C   0  0  0  0  0  0  0  0  0  0  0  0
   10.0459   -2.0896    0.0000 C   0  0  0  0  0  0  0  0  0  0  0  0
    3.9008   -2.9410    0.0000 C   0  0  0  0  0  0  0  0  0  0  0  0
    3.5293   -2.2599    0.0000 C   0  0  0  0  0  0  0  0  0  0  0  0
    3.1422   -2.8791    0.0000 C   0  0  0  0  0  0  0  0  0  0  0  0
    9.2874   -3.6531    0.0000 C   0  0  0  0  0  0  0  0  0  0  0  0
    8.6219   -4.1278    0.0000 C   0  0  0  0  0  0  0  0  0  0  0  0
    8.6373   -5.0152    0.0000 C   0  0  0  0  0  0  0  0  0  0  0  0
    3.2196   -5.0668    0.0000 C   0  0  0  0  0  0  0  0  0  0  0  0
    6.5322   -4.5818    0.0000 C   0  0  0  0  0  0  0  0  0  0  0  0
    6.1348   -5.2784    0.0000 C   0  0  0  0  0  0  0  0  0  0  0  0
    2.4921   -5.4745    0.0000 C   0  0  0  0  0  0  0  0  0  0  0  0
    5.3403   -5.4745    0.0000 C   0  0  0  0  0  0  0  0  0  0  0  0
    1.2125   -5.7634    0.0000 C   0  0  0  0  0  0  0  0  0  0  0  0
    2.4147   -6.3000    0.0000 C   0  0  0  0  0  0  0  0  0  0  0  0
    5.5841   -6.3413    0.0000 C   0  0  0  0  0  0  0  0  0  0  0  0
    5.1623   -7.0894    0.0000 O   0  0  0  0  0  0  0  0  0  0  0  0
    3.9214   -5.4641    0.0000 C   0  0  0  0  0  0  0  0  0  0  0  0
    3.9239   -6.3309    0.0000 O   0  0  0  0  0  0  0  0  0  0  0  0
   11.6248   -3.8620    0.0000 N   0  0  0  0  0  0  0  0  0  0  0  0
    4.6231   -2.5424    0.0000 C   0  0  0  0  0  0  0  0  0  0  0  0
    5.3403   -2.9643    0.0000 O   0  0  0  0  0  0  0  0  0  0  0  0
    7.7937   -6.1529    0.0000 O   0  0  0  0  0  0  0  0  0  0  0  0
    6.3774   -6.9966    0.0000 O   0  0  0  0  0  0  0  0  0  0  0  0
   10.6961   -3.4996    0.0000 C   0  0  0  0  0  0  0  0  0  0  0  0
    7.8711   -5.2861    0.0000 N   0  0  0  0  0  0  0  0  0  0  0  0
    1.7414   -5.1468    0.0000 N   0  0  0  0  0  0  0  0  0  0  0  0
    7.3681   -4.5431    0.0000 N   0  0  0  0  0  0  0  0  0  0  0  0
    7.8557   -3.8311    0.0000 N   0  0  0  0  0  0  0  0  0  0  0  0
   10.0934   -3.9665    0.0000 N   0  0  0  0  0  0  0  0  0  0  0  0
    6.3774   -6.1452    0.0000 N   0  0  0  0  0  0  0  0  0  0  0  0
   10.6496   -2.6779    0.0000 N   0  0  0  0  0  0  0  0  0  0  0  0
    4.4657   -5.0539    0.0000 N   0  0  0  0  0  0  0  0  0  0  0  0
    3.9239   -3.8001    0.0000 O   0  0  0  0  0  0  0  0  0  0  0  0
    1.6098   -6.5090    0.0000 S   0  0  0  0  0  0  0  0  0  0  0  0
    7.0817   -6.5708    0.0000 S   0  0  0  0  0  0  0  0  0  0  0  0
    3.2196   -4.2258    0.0000 N   0  0  0  0  0  0  0  0  0  0  0  0
  1  5  1  0  0  0  0
  5  6  1  0  0  0  0
  6  7  1  0  0  0  0
  6  8  1  0  0  0  0
  9 10  1  0  0  0  0
 10 11  1  0  0  0  0
  9 11  1  0  0  0  0
 12 13  1  0  0  0  0
 13 14  1  0  0  0  0
 16 17  1  0  0  0  0
 15 18  1  0  0  0  0
 17 19  1  0  0  0  0
  3 20  1  0  0  0  0
 18 21  2  0  0  0  0
 19 22  1  0  0  0  0
 22 23  2  0  0  0  0
 15 24  1  0  0  0  0
 24 25  2  0  0  0  0
  9 27  1  0  0  0  0
  2 27  1  0  0  0  0
 27 28  2  0  0  0  0
 26 31  2  0  0  0  0
 14 32  2  0  0  0  0
 18 33  1  0  0  0  0
 20 33  2  0  0  0  0
 16 34  1  0  0  0  0
 32 34  1  0  0  0  0
 13 35  2  0  0  0  0
 34 35  1  0  0  0  0
 12 36  1  0  0  0  0
 31 36  1  0  0  0  0
 17 37  1  0  0  0  0
 22 37  1  0  0  0  0
  7 38  1  0  0  0  0
  8 38  1  0  0  0  0
 31 38  1  0  0  0  0
 19 39  1  0  0  0  0
 24 39  1  0  0  0  0
  9 40  1  0  0  0  0
 20 41  1  0  0  0  0
 21 41  1  0  0  0  0
  4 42  1  0  0  0  0
 29 42  2  0  0  0  0
 30 42  2  0  0  0  0
 37 42  1  0  0  0  0
 15 43  2  0  0  0  0
 40 43  1  0  0  0  0
M  END
> <ID>
SCHEMBL21168043

> <InChIKey>
OJBGAEZSZHQQTG-CPDSRJINSA-N

> <MW>
640.65

> <Series_Name>
Series_14

$$$$
SCHEMBL21168047
  Mrv1719007231912192D 0   0.00000     0.00000     0

 40 43  0  0  1  0              1 V2000 
    5.0302   -5.6065    0.0000 O   0  0  0  0  0  0  0  0  0  0  0  0
    5.6076   -4.9658    0.0000 C   0  0  0  0  0  0  0  0  0  0  0  0
    5.6414   -4.1983    0.0000 C   0  0  1  0  0  0  0  0  0  0  0  0
    4.9690   -3.3884    0.0000 N   0  0  0  0  0  0  0  0  0  0  0  0
    6.4442   -4.1989    0.0000 C   0  0  0  0  0  0  0  0  0  0  0  0
    7.1347   -3.7196    0.0000 C   0  0  0  0  0  0  0  0  0  0  0  0
    7.8072   -4.1568    0.0000 N   0  0  0  0  0  0  0  0  0  0  0  0
    6.4274   -5.0127    0.0000 N   0  0  0  0  0  0  0  0  0  0  0  0
    2.7212   -4.8640    0.0000 C   0  0  0  0  0  0  0  0  0  0  0  0
    2.8404   -4.0194    0.0000 C   0  0  0  0  0  0  0  0  0  0  0  0
    2.0959   -3.6678    0.0000 N   0  0  0  0  0  0  0  0  0  0  0  0
    3.5775   -3.6195    0.0000 C   0  0  0  0  0  0  0  0  0  0  0  0
    3.5630   -2.7421    0.0000 N   0  0  0  0  0  0  0  0  0  0  0  0
    4.2422   -4.0088    0.0000 C   0  0  0  0  0  0  0  0  0  0  0  0
    4.2791   -4.8380    0.0000 O   0  0  0  0  0  0  0  0  0  0  0  0
    1.9387   -5.0127    0.0000 S   0  0  0  0  0  0  0  0  0  0  0  0
    8.4883   -3.6678    0.0000 N   0  0  0  0  0  0  0  0  0  0  0  0
    9.1547   -4.1623    0.0000 C   0  0  0  0  0  0  0  0  0  0  0  0
    9.8152   -3.7584    0.0000 C   0  0  0  0  0  0  0  0  0  0  0  0
   10.5318   -4.1568    0.0000 S   0  0  0  0  0  0  0  0  0  0  0  0
    8.8927   -4.9681    0.0000 C   0  0  0  0  0  0  0  0  0  0  0  0
    8.0517   -4.9603    0.0000 N   0  0  0  0  0  0  0  0  0  0  0  0
    0.4628   -4.1918    0.0000 N   0  0  0  0  0  0  0  0  0  0  0  0
    1.5485   -4.2926    0.0000 C   0  0  0  0  0  0  0  0  0  0  0  0
   10.9336   -4.8903    0.0000 O   0  0  0  0  0  0  0  0  0  0  0  0
   11.2304   -3.7715    0.0000 C   0  0  0  0  0  0  0  0  0  0  0  0
   11.9572   -4.1656    0.0000 C   0  0  0  0  0  0  0  0  0  0  0  0
   12.8286   -3.7377    0.0000 N   0  0  0  0  0  0  0  0  0  0  0  0
    4.2797   -1.4888    0.0000 C   0  0  0  0  0  0  0  0  0  0  0  0
    3.4865   -1.4911    0.0000 C   0  0  0  0  0  0  0  0  0  0  0  0
    3.8600   -0.7785    0.0000 C   0  0  0  0  0  0  0  0  0  0  0  0
    4.9190   -1.1154    0.0000 C   0  0  0  0  0  0  0  0  0  0  0  0
    4.9777   -0.2445    0.0000 O   0  0  0  0  0  0  0  0  0  0  0  0
    5.8510   -1.4845    0.0000 O   0  0  0  0  0  0  0  0  0  0  0  0
    4.2791   -2.3229    0.0000 O   0  0  0  0  0  0  0  0  0  0  0  0
    6.8666   -5.2680    0.0000 S   0  0  0  0  0  0  0  0  0  0  0  0
    6.6113   -5.7071    0.0000 O   0  0  0  0  0  0  0  0  0  0  0  0
    7.3058   -5.5232    0.0000 O   0  0  0  0  0  0  0  0  0  0  0  0
    7.1218   -4.8287    0.0000 O   0  0  0  0  0  0  0  0  0  0  0  0
   10.0952   -4.8729    0.0000 O   0  0  0  0  0  0  0  0  0  0  0  0
  1  2  2  0  0  0  0
  3  2  1  0  0  0  0
  2  8  1  0  0  0  0
  3  4  1  1  0  0  0
  4 14  1  0  0  0  0
  5  6  1  0  0  0  0
  5  8  1  0  0  0  0
  3  5  1  0  0  0  0
  6  7  1  0  0  0  0
  7 22  1  0  0  0  0
  7 17  1  0  0  0  0
  8 36  1  0  0  0  0
  9 10  2  0  0  0  0
 11 10  1  0  0  0  0
 12 10  1  0  0  0  0
 12 14  1  0  0  0  0
 13 12  2  0  0  0  0
 14 15  2  0  0  0  0
 16  9  1  0  0  0  0
 16 24  1  0  0  0  0
 17 18  2  0  0  0  0
 18 19  1  0  0  0  0
 20 19  1  0  0  0  0
 20 25  2  0  0  0  0
 20 26  1  0  0  0  0
 21 18  1  0  0  0  0
 22 21  2  0  0  0  0
 23 24  1  0  0  0  0
 24 11  2  0  0  0  0
 27 28  1  0  0  0  0
 27 26  1  0  0  0  0
 29 30  1  0  0  0  0
 29 32  1  0  0  0  0
 29 35  1  0  0  0  0
 30 31  1  0  0  0  0
 31 29  1  0  0  0  0
 32 33  2  0  0  0  0
 34 32  1  0  0  0  0
 35 13  1  0  0  0  0
 36 37  2  0  0  0  0
 36 38  2  0  0  0  0
 36 39  1  0  0  0  0
 40 20  2  0  0  0  0
M  END
> <ID>
SCHEMBL21168047

> <InChIKey>
RWDKMLIJLIPPJM-YUSQTLDXSA-N

> <MW>
621.62

> <Series_Name>
Series_14

$$$$
SCHEMBL21168070
  Mrv1719007231912312D 0   0.00000     0.00000     0

 44 48  0  0  0  0              1 V2000 
    5.7969   -1.4528    0.0000 O   0  0  0  0  0  0  0  0  0  0  0  0
    0.3936   -4.2583    0.0000 N   0  0  0  0  0  0  0  0  0  0  0  0
    4.1760   -1.4349    0.0000 C   0  0  0  0  0  0  0  0  0  0  0  0
    3.8074   -0.7443    0.0000 C   0  0  0  0  0  0  0  0  0  0  0  0
    3.4352   -1.3025    0.0000 C   0  0  0  0  0  0  0  0  0  0  0  0
    8.9316   -3.4686    0.0000 C   0  0  0  0  0  0  0  0  0  0  0  0
    8.9316   -2.6480    0.0000 C   0  0  0  0  0  0  0  0  0  0  0  0
    3.4161   -3.5879    0.0000 C   0  0  0  0  0  0  0  0  0  0  0  0
    6.8418   -3.0631    0.0000 C   0  0  0  0  0  0  0  0  0  0  0  0
    6.4315   -3.7931    0.0000 C   0  0  0  0  0  0  0  0  0  0  0  0
    9.6043   -3.9791    0.0000 C   0  0  0  0  0  0  0  0  0  0  0  0
    2.7625   -4.0173    0.0000 C   0  0  0  0  0  0  0  0  0  0  0  0
    5.6395   -4.0173    0.0000 C   0  0  0  0  0  0  0  0  0  0  0  0
    1.4647   -4.2940    0.0000 C   0  0  0  0  0  0  0  0  0  0  0  0
   13.8554   -4.4372    0.0000 C   0  0  0  0  0  0  0  0  0  0  0  0
   13.2400   -3.9648    0.0000 C   0  0  0  0  0  0  0  0  0  0  0  0
   12.4384   -4.2893    0.0000 C   0  0  0  0  0  0  0  0  0  0  0  0
    2.6909   -4.8379    0.0000 C   0  0  0  0  0  0  0  0  0  0  0  0
   12.3669   -5.1386    0.0000 C   0  0  0  0  0  0  0  0  0  0  0  0
   12.9966   -5.6252    0.0000 C   0  0  0  0  0  0  0  0  0  0  0  0
    5.4391   -5.5823    0.0000 O   0  0  0  0  0  0  0  0  0  0  0  0
   11.0285   -4.1223    0.0000 C   0  0  0  0  0  0  0  0  0  0  0  0
   10.7709   -4.9811    0.0000 N   0  0  0  0  0  0  0  0  0  0  0  0
    4.9095   -1.0377    0.0000 C   0  0  0  0  0  0  0  0  0  0  0  0
    4.9167   -0.1717    0.0000 O   0  0  0  0  0  0  0  0  0  0  0  0
    4.2010   -4.0078    0.0000 C   0  0  0  0  0  0  0  0  0  0  0  0
    4.2082   -4.8666    0.0000 O   0  0  0  0  0  0  0  0  0  0  0  0
    5.8590   -4.8046    0.0000 C   0  0  0  0  0  0  0  0  0  0  0  0
   11.7831   -3.7942    0.0000 N   0  0  0  0  0  0  0  0  0  0  0  0
    8.1515   -2.3546    0.0000 N   0  0  0  0  0  0  0  0  0  0  0  0
    4.9238   -3.5927    0.0000 N   0  0  0  0  0  0  0  0  0  0  0  0
    3.4853   -2.7339    0.0000 N   0  0  0  0  0  0  0  0  0  0  0  0
    4.2010   -2.3045    0.0000 O   0  0  0  0  0  0  0  0  0  0  0  0
   10.3558   -3.6356    0.0000 N   0  0  0  0  0  0  0  0  0  0  0  0
    2.0253   -3.6643    0.0000 N   0  0  0  0  0  0  0  0  0  0  0  0
   13.9413   -5.2888    0.0000 N   0  0  0  0  0  0  0  0  0  0  0  0
    1.8822   -5.0455    0.0000 S   0  0  0  0  0  0  0  0  0  0  0  0
    8.1515   -3.7430    0.0000 N   0  0  0  0  0  0  0  0  0  0  0  0
    6.6486   -4.6161    0.0000 N   0  0  0  0  0  0  0  0  0  0  0  0
    7.6720   -3.0559    0.0000 N   0  0  0  0  0  0  0  0  0  0  0  0
    7.5112   -4.3994    0.0000 O   0  0  0  0  0  0  0  0  0  0  0  0
    7.1883   -4.9391    0.0000 S   0  0  0  0  0  0  0  0  0  0  0  0
    6.8653   -5.4787    0.0000 O   0  0  0  0  0  0  0  0  0  0  0  0
    7.7279   -5.2621    0.0000 O   0  0  0  0  0  0  0  0  0  0  0  0
  3  4  1  0  0  0  0
  4  5  1  0  0  0  0
  3  5  1  0  0  0  0
  6  7  1  0  0  0  0
  9 10  1  0  0  0  0
  6 11  1  0  0  0  0
  8 12  1  0  0  0  0
 10 13  1  0  0  0  0
  2 14  1  0  0  0  0
 15 16  1  0  0  0  0
 16 17  1  0  0  0  0
 12 18  2  0  0  0  0
 17 19  1  0  0  0  0
 19 20  1  0  0  0  0
 22 23  2  0  0  0  0
  1 24  1  0  0  0  0
  3 24  1  0  0  0  0
 24 25  2  0  0  0  0
  8 26  1  0  0  0  0
 26 27  2  0  0  0  0
 13 28  1  0  0  0  0
 21 28  2  0  0  0  0
 17 29  1  0  0  0  0
 22 29  1  0  0  0  0
  7 30  2  0  0  0  0
 13 31  1  0  0  0  0
 26 31  1  0  0  0  0
  8 32  2  0  0  0  0
  3 33  1  0  0  0  0
 32 33  1  0  0  0  0
 11 34  1  0  0  0  0
 22 34  1  0  0  0  0
 12 35  1  0  0  0  0
 14 35  2  0  0  0  0
 15 36  1  0  0  0  0
 20 36  1  0  0  0  0
 14 37  1  0  0  0  0
 18 37  1  0  0  0  0
  6 38  2  0  0  0  0
 10 39  1  0  0  0  0
 28 39  1  0  0  0  0
  9 40  1  0  0  0  0
 30 40  1  0  0  0  0
 38 40  1  0  0  0  0
 39 42  1  0  0  0  0
 41 42  1  0  0  0  0
 42 43  2  0  0  0  0
 42 44  2  0  0  0  0
M  END
> <ID>
SCHEMBL21168070

> <InChIKey>
DGADOYBOFKWKBZ-CNCDYAKUSA-N

> <MW>
654.68

> <Series_Name>
Series_14

$$$$
SCHEMBL21168076
  Mrv1719007231912312D 0   0.00000     0.00000     0

 41 45  0  0  0  0              1 V2000 
    4.9683   -0.1749    0.0000 O   0  0  0  0  0  0  0  0  0  0  0  0
    5.8492   -1.3603    0.0000 O   0  0  0  0  0  0  0  0  0  0  0  0
    0.3951   -4.1327    0.0000 N   0  0  0  0  0  0  0  0  0  0  0  0
    4.8970   -0.9500    0.0000 C   0  0  0  0  0  0  0  0  0  0  0  0
    3.8088   -0.6737    0.0000 C   0  0  0  0  0  0  0  0  0  0  0  0
    3.4331   -1.3603    0.0000 C   0  0  0  0  0  0  0  0  0  0  0  0
    4.2234   -1.3538    0.0000 C   0  0  0  0  0  0  0  0  0  0  0  0
    3.5670   -3.4720    0.0000 C   0  0  0  0  0  0  0  0  0  0  0  0
    2.7853   -3.8822    0.0000 C   0  0  0  0  0  0  0  0  0  0  0  0
    7.0735   -3.6015    0.0000 C   0  0  0  0  0  0  0  0  0  0  0  0
    6.4387   -4.0636    0.0000 C   0  0  0  0  0  0  0  0  0  0  0  0
    5.6010   -4.0507    0.0000 C   0  0  0  0  0  0  0  0  0  0  0  0
    9.2500   -4.0680    0.0000 C   0  0  0  0  0  0  0  0  0  0  0  0
    8.9909   -4.8625    0.0000 C   0  0  0  0  0  0  0  0  0  0  0  0
    1.4682   -4.1716    0.0000 C   0  0  0  0  0  0  0  0  0  0  0  0
    2.7076   -4.7027    0.0000 C   0  0  0  0  0  0  0  0  0  0  0  0
    9.5091   -5.5578    0.0000 C   0  0  0  0  0  0  0  0  0  0  0  0
   10.8132   -6.1278    0.0000 C   0  0  0  0  0  0  0  0  0  0  0  0
   12.1260   -6.6978    0.0000 C   0  0  0  0  0  0  0  0  0  0  0  0
   11.6467   -6.0371    0.0000 C   0  0  0  0  0  0  0  0  0  0  0  0
   10.4936   -6.9310    0.0000 C   0  0  0  0  0  0  0  0  0  0  0  0
   10.9860   -7.5788    0.0000 C   0  0  0  0  0  0  0  0  0  0  0  0
    5.0201   -5.5060    0.0000 O   0  0  0  0  0  0  0  0  0  0  0  0
    4.2493   -3.8757    0.0000 C   0  0  0  0  0  0  0  0  0  0  0  0
    4.2558   -4.7286    0.0000 O   0  0  0  0  0  0  0  0  0  0  0  0
    5.6204   -4.8754    0.0000 C   0  0  0  0  0  0  0  0  0  0  0  0
    4.9590   -3.4465    0.0000 N   0  0  0  0  0  0  0  0  0  0  0  0
    8.1682   -4.8582    0.0000 N   0  0  0  0  0  0  0  0  0  0  0  0
    2.0340   -3.5367    0.0000 N   0  0  0  0  0  0  0  0  0  0  0  0
   11.9835   -7.4881    0.0000 N   0  0  0  0  0  0  0  0  0  0  0  0
    6.4517   -4.9035    0.0000 N   0  0  0  0  0  0  0  0  0  0  0  0
   10.4807   -5.4736    0.0000 N   0  0  0  0  0  0  0  0  0  0  0  0
    7.9091   -4.0615    0.0000 N   0  0  0  0  0  0  0  0  0  0  0  0
    8.5957   -3.5562    0.0000 N   0  0  0  0  0  0  0  0  0  0  0  0
    3.5238   -2.6234    0.0000 N   0  0  0  0  0  0  0  0  0  0  0  0
    4.2558   -2.1959    0.0000 O   0  0  0  0  0  0  0  0  0  0  0  0
    1.9044   -4.8970    0.0000 S   0  0  0  0  0  0  0  0  0  0  0  0
    7.3508   -4.9117    0.0000 O   0  0  0  0  0  0  0  0  0  0  0  0
    6.8971   -5.3573    0.0000 S   0  0  0  0  0  0  0  0  0  0  0  0
    6.4434   -5.8026    0.0000 O   0  0  0  0  0  0  0  0  0  0  0  0
    7.3425   -5.8109    0.0000 O   0  0  0  0  0  0  0  0  0  0  0  0
  1  4  2  0  0  0  0
  2  4  1  0  0  0  0
  5  6  1  0  0  0  0
  6  7  1  0  0  0  0
  5  7  1  0  0  0  0
  4  7  1  0  0  0  0
  8  9  1  0  0  0  0
 10 11  1  0  0  0  0
 11 12  1  0  0  0  0
 13 14  1  0  0  0  0
  3 15  1  0  0  0  0
  9 16  2  0  0  0  0
 14 17  1  0  0  0  0
 19 20  1  0  0  0  0
 18 20  1  0  0  0  0
 18 21  1  0  0  0  0
 21 22  1  0  0  0  0
  8 24  1  0  0  0  0
 24 25  2  0  0  0  0
 12 26  1  0  0  0  0
 23 26  2  0  0  0  0
 12 27  1  0  0  0  0
 24 27  1  0  0  0  0
 14 28  2  0  0  0  0
  9 29  1  0  0  0  0
 15 29  2  0  0  0  0
 19 30  1  0  0  0  0
 22 30  1  0  0  0  0
 11 31  1  0  0  0  0
 26 31  1  0  0  0  0
 17 32  1  0  0  0  0
 18 32  1  0  0  0  0
 10 33  1  0  0  0  0
 28 33  1  0  0  0  0
 13 34  2  0  0  0  0
 33 34  1  0  0  0  0
  8 35  2  0  0  0  0
  7 36  1  0  0  0  0
 35 36  1  0  0  0  0
 15 37  1  0  0  0  0
 16 37  1  0  0  0  0
 31 39  1  0  0  0  0
 38 39  1  0  0  0  0
 39 40  2  0  0  0  0
 39 41  2  0  0  0  0
M  END
> <ID>
SCHEMBL21168076

> <InChIKey>
SFDMVIDWNUDRRN-FDVSRXAVSA-N

> <MW>
612.64

> <Series_Name>
Series_14

$$$$
SCHEMBL21168077
  Mrv1719007231912312D 0   0.00000     0.00000     0

 38 41  0  0  0  0              1 V2000 
    4.9687   -0.1711    0.0000 O   0  0  0  0  0  0  0  0  0  0  0  0
    5.8440   -1.3952    0.0000 O   0  0  0  0  0  0  0  0  0  0  0  0
    0.3949   -4.2382    0.0000 N   0  0  0  0  0  0  0  0  0  0  0  0
   13.1490   -4.6002    0.0000 N   0  0  0  0  0  0  0  0  0  0  0  0
    4.9139   -0.9696    0.0000 C   0  0  0  0  0  0  0  0  0  0  0  0
    3.8170   -0.6756    0.0000 C   0  0  0  0  0  0  0  0  0  0  0  0
    3.4353   -1.3952    0.0000 C   0  0  0  0  0  0  0  0  0  0  0  0
    4.2251   -1.3755    0.0000 C   0  0  0  0  0  0  0  0  0  0  0  0
    2.7904   -3.9837    0.0000 C   0  0  0  0  0  0  0  0  0  0  0  0
    7.0812   -3.6986    0.0000 C   0  0  0  0  0  0  0  0  0  0  0  0
    6.4275   -4.1724    0.0000 C   0  0  0  0  0  0  0  0  0  0  0  0
    5.6071   -4.1812    0.0000 C   0  0  0  0  0  0  0  0  0  0  0  0
    9.2617   -4.1680    0.0000 C   0  0  0  0  0  0  0  0  0  0  0  0
    1.4786   -4.2645    0.0000 C   0  0  0  0  0  0  0  0  0  0  0  0
   10.0559   -3.8960    0.0000 C   0  0  0  0  0  0  0  0  0  0  0  0
    2.7114   -4.8305    0.0000 C   0  0  0  0  0  0  0  0  0  0  0  0
    8.9766   -5.0016    0.0000 C   0  0  0  0  0  0  0  0  0  0  0  0
   12.0828   -4.8042    0.0000 C   0  0  0  0  0  0  0  0  0  0  0  0
   11.4905   -4.2382    0.0000 C   0  0  0  0  0  0  0  0  0  0  0  0
    3.5143   -3.5735    0.0000 C   0  0  0  0  0  0  0  0  0  0  0  0
    4.2448   -4.8568    0.0000 O   0  0  0  0  0  0  0  0  0  0  0  0
    5.0213   -5.6400    0.0000 O   0  0  0  0  0  0  0  0  0  0  0  0
    4.2338   -3.9574    0.0000 C   0  0  0  0  0  0  0  0  0  0  0  0
    5.6246   -5.0060    0.0000 C   0  0  0  0  0  0  0  0  0  0  0  0
    7.9170   -4.1658    0.0000 N   0  0  0  0  0  0  0  0  0  0  0  0
    2.0401   -3.6393    0.0000 N   0  0  0  0  0  0  0  0  0  0  0  0
    4.9751   -3.5562    0.0000 N   0  0  0  0  0  0  0  0  0  0  0  0
    8.5949   -3.6591    0.0000 N   0  0  0  0  0  0  0  0  0  0  0  0
    3.5274   -2.6851    0.0000 N   0  0  0  0  0  0  0  0  0  0  0  0
   10.6629   -4.4639    0.0000 N   0  0  0  0  0  0  0  0  0  0  0  0
    8.1803   -4.9885    0.0000 N   0  0  0  0  0  0  0  0  0  0  0  0
    6.4429   -5.0279    0.0000 N   0  0  0  0  0  0  0  0  0  0  0  0
    4.2448   -2.2573    0.0000 O   0  0  0  0  0  0  0  0  0  0  0  0
    1.8954   -5.0213    0.0000 S   0  0  0  0  0  0  0  0  0  0  0  0
    7.3358   -5.0319    0.0000 O   0  0  0  0  0  0  0  0  0  0  0  0
    6.8874   -5.4764    0.0000 S   0  0  0  0  0  0  0  0  0  0  0  0
    6.4389   -5.9209    0.0000 O   0  0  0  0  0  0  0  0  0  0  0  0
    7.3319   -5.9248    0.0000 O   0  0  0  0  0  0  0  0  0  0  0  0
  1  5  2  0  0  0  0
  2  5  1  0  0  0  0
  6  7  1  0  0  0  0
  7  8  1  0  0  0  0
  6  8  1  0  0  0  0
  5  8  1  0  0  0  0
 10 11  1  0  0  0  0
 11 12  1  0  0  0  0
  3 14  1  0  0  0  0
 13 15  1  0  0  0  0
  9 16  2  0  0  0  0
 13 17  1  0  0  0  0
  4 18  1  0  0  0  0
 18 19  1  0  0  0  0
  9 20  1  0  0  0  0
 20 23  1  0  0  0  0
 21 23  2  0  0  0  0
 12 24  1  0  0  0  0
 22 24  2  0  0  0  0
 10 25  1  0  0  0  0
  9 26  1  0  0  0  0
 14 26  2  0  0  0  0
 12 27  1  0  0  0  0
 23 27  1  0  0  0  0
 13 28  2  0  0  0  0
 25 28  1  0  0  0  0
 20 29  2  0  0  0  0
 15 30  1  0  0  0  0
 19 30  1  0  0  0  0
 17 31  2  0  0  0  0
 25 31  1  0  0  0  0
 11 32  1  0  0  0  0
 24 32  1  0  0  0  0
  8 33  1  0  0  0  0
 29 33  1  0  0  0  0
 14 34  1  0  0  0  0
 16 34  1  0  0  0  0
 32 36  1  0  0  0  0
 35 36  1  0  0  0  0
 36 37  2  0  0  0  0
 36 38  2  0  0  0  0
M  END
> <ID>
SCHEMBL21168077

> <InChIKey>
CORBOVFLNJTYOU-ZRGSRPPYSA-N

> <MW>
572.57

> <Series_Name>
Series_14

$$$$
SCHEMBL21168082
  Mrv1719007231912322D 0   0.00000     0.00000     0

 39 42  0  0  0  0              1 V2000 
    4.9979   -0.1749    0.0000 O   0  0  0  0  0  0  0  0  0  0  0  0
    5.8725   -1.3661    0.0000 O   0  0  0  0  0  0  0  0  0  0  0  0
    0.3915   -4.1399    0.0000 N   0  0  0  0  0  0  0  0  0  0  0  0
   12.9944   -6.6471    0.0000 C   0  0  0  0  0  0  0  0  0  0  0  0
    5.0145   -0.9274    0.0000 C   0  0  0  0  0  0  0  0  0  0  0  0
    3.8372   -0.6719    0.0000 C   0  0  0  0  0  0  0  0  0  0  0  0
    3.4485   -1.3328    0.0000 C   0  0  0  0  0  0  0  0  0  0  0  0
    4.2315   -1.3494    0.0000 C   0  0  0  0  0  0  0  0  0  0  0  0
    2.8044   -3.8928    0.0000 C   0  0  0  0  0  0  0  0  0  0  0  0
    2.7322   -4.7146    0.0000 C   0  0  0  0  0  0  0  0  0  0  0  0
    7.1136   -3.6151    0.0000 C   0  0  0  0  0  0  0  0  0  0  0  0
    6.4694   -4.0927    0.0000 C   0  0  0  0  0  0  0  0  0  0  0  0
    5.6365   -4.0760    0.0000 C   0  0  0  0  0  0  0  0  0  0  0  0
    9.0517   -4.8812    0.0000 C   0  0  0  0  0  0  0  0  0  0  0  0
    9.2960   -4.0982    0.0000 C   0  0  0  0  0  0  0  0  0  0  0  0
    1.5049   -4.1815    0.0000 C   0  0  0  0  0  0  0  0  0  0  0  0
    9.5126   -5.5643    0.0000 C   0  0  0  0  0  0  0  0  0  0  0  0
   10.8620   -6.1640    0.0000 C   0  0  0  0  0  0  0  0  0  0  0  0
   11.6783   -6.0641    0.0000 C   0  0  0  0  0  0  0  0  0  0  0  0
    5.0478   -5.5226    0.0000 O   0  0  0  0  0  0  0  0  0  0  0  0
    4.2621   -3.8817    0.0000 C   0  0  0  0  0  0  0  0  0  0  0  0
    4.2648   -4.7313    0.0000 O   0  0  0  0  0  0  0  0  0  0  0  0
    3.5457   -3.4596    0.0000 C   0  0  0  0  0  0  0  0  0  0  0  0
    5.6559   -4.8868    0.0000 C   0  0  0  0  0  0  0  0  0  0  0  0
   12.0282   -6.7304    0.0000 N   0  0  0  0  0  0  0  0  0  0  0  0
    8.2048   -4.8812    0.0000 N   0  0  0  0  0  0  0  0  0  0  0  0
    6.4806   -4.9146    0.0000 N   0  0  0  0  0  0  0  0  0  0  0  0
   10.5371   -5.4976    0.0000 N   0  0  0  0  0  0  0  0  0  0  0  0
    5.0119   -3.4961    0.0000 N   0  0  0  0  0  0  0  0  0  0  0  0
    3.5402   -2.6322    0.0000 N   0  0  0  0  0  0  0  0  0  0  0  0
    1.9075   -4.9062    0.0000 S   0  0  0  0  0  0  0  0  0  0  0  0
    7.9466   -4.0733    0.0000 N   0  0  0  0  0  0  0  0  0  0  0  0
    4.2648   -2.2157    0.0000 O   0  0  0  0  0  0  0  0  0  0  0  0
    2.0408   -3.5485    0.0000 N   0  0  0  0  0  0  0  0  0  0  0  0
    8.6380   -3.5651    0.0000 N   0  0  0  0  0  0  0  0  0  0  0  0
    7.3360   -4.9232    0.0000 O   0  0  0  0  0  0  0  0  0  0  0  0
    6.9040   -5.3466    0.0000 S   0  0  0  0  0  0  0  0  0  0  0  0
    6.4720   -5.7700    0.0000 O   0  0  0  0  0  0  0  0  0  0  0  0
    7.3274   -5.7786    0.0000 O   0  0  0  0  0  0  0  0  0  0  0  0
  1  5  2  0  0  0  0
  2  5  1  0  0  0  0
  6  7  1  0  0  0  0
  7  8  1  0  0  0  0
  6  8  1  0  0  0  0
  5  8  1  0  0  0  0
  9 10  2  0  0  0  0
 11 12  1  0  0  0  0
 12 13  1  0  0  0  0
 14 15  1  0  0  0  0
  3 16  1  0  0  0  0
 14 17  1  0  0  0  0
 18 19  1  0  0  0  0
 21 22  2  0  0  0  0
  9 23  1  0  0  0  0
 21 23  1  0  0  0  0
 13 24  1  0  0  0  0
 20 24  2  0  0  0  0
  4 25  1  0  0  0  0
 19 25  1  0  0  0  0
 14 26  2  0  0  0  0
 12 27  1  0  0  0  0
 24 27  1  0  0  0  0
 17 28  1  0  0  0  0
 18 28  1  0  0  0  0
 13 29  1  0  0  0  0
 21 29  1  0  0  0  0
 23 30  2  0  0  0  0
 10 31  1  0  0  0  0
 16 31  1  0  0  0  0
 11 32  1  0  0  0  0
 26 32  1  0  0  0  0
  8 33  1  0  0  0  0
 30 33  1  0  0  0  0
  9 34  1  0  0  0  0
 16 34  2  0  0  0  0
 15 35  2  0  0  0  0
 32 35  1  0  0  0  0
 27 37  1  0  0  0  0
 36 37  1  0  0  0  0
 37 38  2  0  0  0  0
 37 39  2  0  0  0  0
M  END
> <ID>
SCHEMBL21168082

> <InChIKey>
LMZYBTNONNBNIO-WKIKZPBSSA-N

> <MW>
586.6

> <Series_Name>
Series_14

$$$$
SCHEMBL21168084
  Mrv1719007231912332D 0   0.00000     0.00000     0

 36 39  0  0  0  0              1 V2000 
    5.8942   -1.4299    0.0000 O   0  0  0  0  0  0  0  0  0  0  0  0
   11.2065   -3.5914    0.0000 N   0  0  0  0  0  0  0  0  0  0  0  0
    0.3990   -4.1983    0.0000 N   0  0  0  0  0  0  0  0  0  0  0  0
   10.1922   -4.7553    0.0000 C   0  0  0  0  0  0  0  0  0  0  0  0
    3.8574   -0.7205    0.0000 C   0  0  0  0  0  0  0  0  0  0  0  0
    4.2606   -1.4050    0.0000 C   0  0  0  0  0  0  0  0  0  0  0  0
    3.5083   -1.2803    0.0000 C   0  0  0  0  0  0  0  0  0  0  0  0
   10.1756   -3.1259    0.0000 C   0  0  0  0  0  0  0  0  0  0  0  0
    9.4607   -3.5526    0.0000 C   0  0  0  0  0  0  0  0  0  0  0  0
    7.2327   -3.5581    0.0000 C   0  0  0  0  0  0  0  0  0  0  0  0
    6.6064   -3.9905    0.0000 C   0  0  0  0  0  0  0  0  0  0  0  0
    2.8099   -3.9516    0.0000 C   0  0  0  0  0  0  0  0  0  0  0  0
    9.4607   -4.3784    0.0000 C   0  0  0  0  0  0  0  0  0  0  0  0
    5.7695   -4.0015    0.0000 C   0  0  0  0  0  0  0  0  0  0  0  0
    1.5019   -4.2398    0.0000 C   0  0  0  0  0  0  0  0  0  0  0  0
    2.7434   -4.7719    0.0000 C   0  0  0  0  0  0  0  0  0  0  0  0
    5.1792   -5.4453    0.0000 O   0  0  0  0  0  0  0  0  0  0  0  0
    4.2814   -4.8051    0.0000 O   0  0  0  0  0  0  0  0  0  0  0  0
    3.5415   -3.5554    0.0000 C   0  0  0  0  0  0  0  0  0  0  0  0
    5.0019   -1.0142    0.0000 C   0  0  0  0  0  0  0  0  0  0  0  0
    5.0047   -0.1746    0.0000 O   0  0  0  0  0  0  0  0  0  0  0  0
    4.2842   -3.9129    0.0000 C   0  0  0  0  0  0  0  0  0  0  0  0
    5.7945   -4.7941    0.0000 C   0  0  0  0  0  0  0  0  0  0  0  0
    2.0617   -3.6246    0.0000 N   0  0  0  0  0  0  0  0  0  0  0  0
    5.1710   -3.4410    0.0000 N   0  0  0  0  0  0  0  0  0  0  0  0
    3.5498   -2.7019    0.0000 N   0  0  0  0  0  0  0  0  0  0  0  0
    8.1721   -3.9655    0.0000 N   0  0  0  0  0  0  0  0  0  0  0  0
    8.6709   -4.6472    0.0000 N   0  0  0  0  0  0  0  0  0  0  0  0
    6.6092   -4.8467    0.0000 N   0  0  0  0  0  0  0  0  0  0  0  0
    8.6792   -3.2755    0.0000 N   0  0  0  0  0  0  0  0  0  0  0  0
    4.2814   -2.2779    0.0000 O   0  0  0  0  0  0  0  0  0  0  0  0
    1.9121   -4.9714    0.0000 S   0  0  0  0  0  0  0  0  0  0  0  0
    7.4957   -4.8740    0.0000 O   0  0  0  0  0  0  0  0  0  0  0  0
    7.0388   -5.3036    0.0000 S   0  0  0  0  0  0  0  0  0  0  0  0
    6.5820   -5.7331    0.0000 O   0  0  0  0  0  0  0  0  0  0  0  0
    7.4684   -5.7605    0.0000 O   0  0  0  0  0  0  0  0  0  0  0  0
  5  6  1  0  0  0  0
  5  7  1  0  0  0  0
  6  7  1  0  0  0  0
  2  8  1  0  0  0  0
  8  9  1  0  0  0  0
 10 11  1  0  0  0  0
  9 13  1  0  0  0  0
  4 13  1  0  0  0  0
 11 14  1  0  0  0  0
  3 15  1  0  0  0  0
 12 16  2  0  0  0  0
 12 19  1  0  0  0  0
  6 20  1  0  0  0  0
  1 20  1  0  0  0  0
 20 21  2  0  0  0  0
 18 22  2  0  0  0  0
 19 22  1  0  0  0  0
 14 23  1  0  0  0  0
 17 23  2  0  0  0  0
 12 24  1  0  0  0  0
 15 24  2  0  0  0  0
 14 25  1  0  0  0  0
 22 25  1  0  0  0  0
 19 26  2  0  0  0  0
 10 27  1  0  0  0  0
 13 28  2  0  0  0  0
 27 28  1  0  0  0  0
 11 29  1  0  0  0  0
 23 29  1  0  0  0  0
  9 30  2  0  0  0  0
 27 30  1  0  0  0  0
  6 31  1  0  0  0  0
 26 31  1  0  0  0  0
 15 32  1  0  0  0  0
 16 32  1  0  0  0  0
 29 34  1  0  0  0  0
 33 34  1  0  0  0  0
 34 35  2  0  0  0  0
 34 36  2  0  0  0  0
M  END
> <ID>
SCHEMBL21168084

> <InChIKey>
WSVHVJFJJABDEM-MYKKPKGFSA-N

> <MW>
543.53

> <Series_Name>
Series_14

$$$$
SCHEMBL21168087
  Mrv1719007231912332D 0   0.00000     0.00000     0

 40 43  0  0  0  0              1 V2000 
    5.0219   -0.1702    0.0000 O   0  0  0  0  0  0  0  0  0  0  0  0
    5.8993   -1.3619    0.0000 O   0  0  0  0  0  0  0  0  0  0  0  0
    0.3928   -4.1250    0.0000 N   0  0  0  0  0  0  0  0  0  0  0  0
   13.5927   -7.2285    0.0000 C   0  0  0  0  0  0  0  0  0  0  0  0
    4.9586   -0.9516    0.0000 C   0  0  0  0  0  0  0  0  0  0  0  0
    3.8631   -0.6591    0.0000 C   0  0  0  0  0  0  0  0  0  0  0  0
    3.4833   -1.3357    0.0000 C   0  0  0  0  0  0  0  0  0  0  0  0
    4.2657   -1.3357    0.0000 C   0  0  0  0  0  0  0  0  0  0  0  0
    2.8155   -3.8718    0.0000 C   0  0  0  0  0  0  0  0  0  0  0  0
    7.1761   -3.5880    0.0000 C   0  0  0  0  0  0  0  0  0  0  0  0
    6.5082   -4.0551    0.0000 C   0  0  0  0  0  0  0  0  0  0  0  0
    5.6833   -4.0464    0.0000 C   0  0  0  0  0  0  0  0  0  0  0  0
    9.3629   -4.0464    0.0000 C   0  0  0  0  0  0  0  0  0  0  0  0
    9.1054   -4.8452    0.0000 C   0  0  0  0  0  0  0  0  0  0  0  0
    1.4972   -4.1512    0.0000 C   0  0  0  0  0  0  0  0  0  0  0  0
    2.7369   -4.6880    0.0000 C   0  0  0  0  0  0  0  0  0  0  0  0
    9.5987   -5.5393    0.0000 C   0  0  0  0  0  0  0  0  0  0  0  0
   10.9344   -6.1285    0.0000 C   0  0  0  0  0  0  0  0  0  0  0  0
   11.7725   -6.0237    0.0000 C   0  0  0  0  0  0  0  0  0  0  0  0
   12.2701   -6.7046    0.0000 C   0  0  0  0  0  0  0  0  0  0  0  0
    5.6964   -4.8691    0.0000 C   0  0  0  0  0  0  0  0  0  0  0  0
    5.0743   -5.4869    0.0000 O   0  0  0  0  0  0  0  0  0  0  0  0
    3.5618   -3.4571    0.0000 C   0  0  0  0  0  0  0  0  0  0  0  0
    4.2756   -3.8631    0.0000 C   0  0  0  0  0  0  0  0  0  0  0  0
    4.2887   -4.7208    0.0000 O   0  0  0  0  0  0  0  0  0  0  0  0
    5.0541   -3.4578    0.0000 N   0  0  0  0  0  0  0  0  0  0  0  0
    4.2887   -2.1999    0.0000 O   0  0  0  0  0  0  0  0  0  0  0  0
    3.5684   -2.6190    0.0000 N   0  0  0  0  0  0  0  0  0  0  0  0
    7.9945   -4.0464    0.0000 N   0  0  0  0  0  0  0  0  0  0  0  0
    8.2630   -4.8452    0.0000 N   0  0  0  0  0  0  0  0  0  0  0  0
    6.5147   -4.8845    0.0000 N   0  0  0  0  0  0  0  0  0  0  0  0
   13.2784   -6.6064    0.0000 N   0  0  0  0  0  0  0  0  0  0  0  0
    8.6886   -3.5553    0.0000 N   0  0  0  0  0  0  0  0  0  0  0  0
   10.5939   -5.4541    0.0000 N   0  0  0  0  0  0  0  0  0  0  0  0
    1.9053   -4.8779    0.0000 S   0  0  0  0  0  0  0  0  0  0  0  0
    2.0624   -3.5357    0.0000 N   0  0  0  0  0  0  0  0  0  0  0  0
    7.4038   -4.8892    0.0000 O   0  0  0  0  0  0  0  0  0  0  0  0
    6.9569   -5.3313    0.0000 S   0  0  0  0  0  0  0  0  0  0  0  0
    6.5101   -5.7735    0.0000 O   0  0  0  0  0  0  0  0  0  0  0  0
    7.3991   -5.7782    0.0000 O   0  0  0  0  0  0  0  0  0  0  0  0
  1  5  2  0  0  0  0
  2  5  1  0  0  0  0
  6  7  1  0  0  0  0
  7  8  1  0  0  0  0
  6  8  1  0  0  0  0
  5  8  1  0  0  0  0
 10 11  1  0  0  0  0
 11 12  1  0  0  0  0
 13 14  1  0  0  0  0
  3 15  1  0  0  0  0
  9 16  2  0  0  0  0
 14 17  1  0  0  0  0
 18 19  1  0  0  0  0
 19 20  1  0  0  0  0
 12 21  1  0  0  0  0
 21 22  2  0  0  0  0
  9 23  1  0  0  0  0
 23 24  1  0  0  0  0
 24 25  2  0  0  0  0
 12 26  1  0  0  0  0
 24 26  1  0  0  0  0
  8 27  1  0  0  0  0
 23 28  2  0  0  0  0
 27 28  1  0  0  0  0
 10 29  1  0  0  0  0
 14 30  2  0  0  0  0
 29 30  1  0  0  0  0
 11 31  1  0  0  0  0
 21 31  1  0  0  0  0
  4 32  1  0  0  0  0
 20 32  1  0  0  0  0
 13 33  2  0  0  0  0
 29 33  1  0  0  0  0
 17 34  1  0  0  0  0
 18 34  1  0  0  0  0
 15 35  1  0  0  0  0
 16 35  1  0  0  0  0
  9 36  1  0  0  0  0
 15 36  2  0  0  0  0
 31 38  1  0  0  0  0
 37 38  1  0  0  0  0
 38 39  2  0  0  0  0
 38 40  2  0  0  0  0
M  END
> <ID>
SCHEMBL21168087

> <InChIKey>
KYPNFFBOJQBOAY-MUXKCCDJSA-N

> <MW>
600.63

> <Series_Name>
Series_14

$$$$
SCHEMBL21168088
  Mrv1719007231912332D 0   0.00000     0.00000     0

 41 44  0  0  0  0              1 V2000 
    5.8181   -1.4221    0.0000 O   0  0  0  0  0  0  0  0  0  0  0  0
    0.3896   -4.2078    0.0000 N   0  0  0  0  0  0  0  0  0  0  0  0
   13.2855   -5.8571    0.0000 N   0  0  0  0  0  0  0  0  0  0  0  0
   12.6492   -6.7012    0.0000 C   0  0  0  0  0  0  0  0  0  0  0  0
   11.6492   -6.5713    0.0000 C   0  0  0  0  0  0  0  0  0  0  0  0
    3.8052   -0.7403    0.0000 C   0  0  0  0  0  0  0  0  0  0  0  0
    3.4155   -1.4156    0.0000 C   0  0  0  0  0  0  0  0  0  0  0  0
    4.1947   -1.4091    0.0000 C   0  0  0  0  0  0  0  0  0  0  0  0
    3.5064   -3.5238    0.0000 C   0  0  0  0  0  0  0  0  0  0  0  0
    9.1124   -3.6450    0.0000 C   0  0  0  0  0  0  0  0  0  0  0  0
    2.7749   -3.9653    0.0000 C   0  0  0  0  0  0  0  0  0  0  0  0
    2.7143   -4.7791    0.0000 C   0  0  0  0  0  0  0  0  0  0  0  0
    6.8830   -3.5844    0.0000 C   0  0  0  0  0  0  0  0  0  0  0  0
    6.3679   -4.1038    0.0000 C   0  0  0  0  0  0  0  0  0  0  0  0
    8.9090   -4.4588    0.0000 C   0  0  0  0  0  0  0  0  0  0  0  0
    5.5540   -4.1038    0.0000 C   0  0  0  0  0  0  0  0  0  0  0  0
    1.4718   -4.2294    0.0000 C   0  0  0  0  0  0  0  0  0  0  0  0
    9.4414   -5.1168    0.0000 C   0  0  0  0  0  0  0  0  0  0  0  0
   10.8181   -5.5973    0.0000 C   0  0  0  0  0  0  0  0  0  0  0  0
   11.6492   -5.4025    0.0000 C   0  0  0  0  0  0  0  0  0  0  0  0
   12.2044   -6.0064    0.0000 C   0  0  0  0  0  0  0  0  0  0  0  0
    4.2207   -3.9372    0.0000 C   0  0  0  0  0  0  0  0  0  0  0  0
    4.2272   -4.7986    0.0000 O   0  0  0  0  0  0  0  0  0  0  0  0
    4.9804   -5.5519    0.0000 O   0  0  0  0  0  0  0  0  0  0  0  0
    4.9480   -1.0130    0.0000 C   0  0  0  0  0  0  0  0  0  0  0  0
    4.9545   -0.1688    0.0000 O   0  0  0  0  0  0  0  0  0  0  0  0
    5.5714   -4.9198    0.0000 C   0  0  0  0  0  0  0  0  0  0  0  0
    5.0267   -3.4670    0.0000 N   0  0  0  0  0  0  0  0  0  0  0  0
    3.5129   -2.6883    0.0000 N   0  0  0  0  0  0  0  0  0  0  0  0
    8.4350   -3.1948    0.0000 N   0  0  0  0  0  0  0  0  0  0  0  0
   10.2442   -4.9597    0.0000 N   0  0  0  0  0  0  0  0  0  0  0  0
    6.3830   -4.9480    0.0000 N   0  0  0  0  0  0  0  0  0  0  0  0
    8.0778   -4.5194    0.0000 N   0  0  0  0  0  0  0  0  0  0  0  0
    1.8896   -4.9675    0.0000 S   0  0  0  0  0  0  0  0  0  0  0  0
    2.0194   -3.6168    0.0000 N   0  0  0  0  0  0  0  0  0  0  0  0
    4.2142   -2.2727    0.0000 O   0  0  0  0  0  0  0  0  0  0  0  0
    7.7791   -3.7272    0.0000 N   0  0  0  0  0  0  0  0  0  0  0  0
    7.2871   -4.9555    0.0000 O   0  0  0  0  0  0  0  0  0  0  0  0
    6.8313   -5.4038    0.0000 S   0  0  0  0  0  0  0  0  0  0  0  0
    6.3755   -5.8521    0.0000 O   0  0  0  0  0  0  0  0  0  0  0  0
    7.2796   -5.8596    0.0000 O   0  0  0  0  0  0  0  0  0  0  0  0
  6  7  1  0  0  0  0
  7  8  1  0  0  0  0
  6  8  1  0  0  0  0
  9 11  1  0  0  0  0
 11 12  2  0  0  0  0
 13 14  1  0  0  0  0
 10 15  1  0  0  0  0
 14 16  1  0  0  0  0
  2 17  1  0  0  0  0
 15 18  1  0  0  0  0
 19 20  1  0  0  0  0
 20 21  1  0  0  0  0
  3 21  1  0  0  0  0
  4 21  1  0  0  0  0
  5 21  1  0  0  0  0
  9 22  1  0  0  0  0
 22 23  2  0  0  0  0
  8 25  1  0  0  0  0
  1 25  1  0  0  0  0
 25 26  2  0  0  0  0
 16 27  1  0  0  0  0
 24 27  2  0  0  0  0
 16 28  1  0  0  0  0
 22 28  1  0  0  0  0
  9 29  2  0  0  0  0
 10 30  2  0  0  0  0
 18 31  1  0  0  0  0
 19 31  1  0  0  0  0
 14 32  1  0  0  0  0
 27 32  1  0  0  0  0
 15 33  2  0  0  0  0
 12 34  1  0  0  0  0
 17 34  1  0  0  0  0
 11 35  1  0  0  0  0
 17 35  2  0  0  0  0
  8 36  1  0  0  0  0
 29 36  1  0  0  0  0
 13 37  1  0  0  0  0
 30 37  1  0  0  0  0
 33 37  1  0  0  0  0
 32 39  1  0  0  0  0
 38 39  1  0  0  0  0
 39 40  2  0  0  0  0
 39 41  2  0  0  0  0
M  END
> <ID>
SCHEMBL21168088

> <InChIKey>
VCVAGHYKNUPJEP-NUJZUDFISA-N

> <MW>
614.65

> <Series_Name>
Series_14

$$$$
SCHEMBL21168108
  Mrv1719007231912372D 0   0.00000     0.00000     0

 38 41  0  0  0  0              1 V2000 
    5.6867   -1.4311    0.0000 O   0  0  0  0  0  0  0  0  0  0  0  0
   14.6621   -3.8575    0.0000 N   0  0  0  0  0  0  0  0  0  0  0  0
    0.3887   -4.2649    0.0000 N   0  0  0  0  0  0  0  0  0  0  0  0
    7.2694   -5.6108    0.0000 S   0  0  0  0  0  0  0  0  0  0  0  0
    4.0992   -1.4121    0.0000 C   0  0  0  0  0  0  0  0  0  0  0  0
    3.7342   -0.7392    0.0000 C   0  0  0  0  0  0  0  0  0  0  0  0
    3.3551   -1.3270    0.0000 C   0  0  0  0  0  0  0  0  0  0  0  0
    2.7296   -3.9364    0.0000 C   0  0  0  0  0  0  0  0  0  0  0  0
    6.8051   -3.6963    0.0000 C   0  0  0  0  0  0  0  0  0  0  0  0
    6.2616   -4.1323    0.0000 C   0  0  0  0  0  0  0  0  0  0  0  0
    9.6484   -3.6963    0.0000 C   0  0  0  0  0  0  0  0  0  0  0  0
    8.9975   -4.1007    0.0000 C   0  0  0  0  0  0  0  0  0  0  0  0
    8.7385   -4.9095    0.0000 C   0  0  0  0  0  0  0  0  0  0  0  0
    5.4655   -4.1260    0.0000 C   0  0  0  0  0  0  0  0  0  0  0  0
   13.6100   -4.2460    0.0000 C   0  0  0  0  0  0  0  0  0  0  0  0
   12.8329   -3.7722    0.0000 C   0  0  0  0  0  0  0  0  0  0  0  0
    1.4658   -4.2270    0.0000 C   0  0  0  0  0  0  0  0  0  0  0  0
    2.6538   -4.7579    0.0000 C   0  0  0  0  0  0  0  0  0  0  0  0
   11.2786   -2.7959    0.0000 O   0  0  0  0  0  0  0  0  0  0  0  0
    4.1323   -4.7958    0.0000 O   0  0  0  0  0  0  0  0  0  0  0  0
    4.8337   -0.1706    0.0000 O   0  0  0  0  0  0  0  0  0  0  0  0
    4.8906   -5.5634    0.0000 O   0  0  0  0  0  0  0  0  0  0  0  0
    4.8242   -1.0141    0.0000 C   0  0  0  0  0  0  0  0  0  0  0  0
    3.4214   -3.5447    0.0000 C   0  0  0  0  0  0  0  0  0  0  0  0
    4.1292   -3.9143    0.0000 C   0  0  0  0  0  0  0  0  0  0  0  0
   11.2406   -3.7342    0.0000 C   0  0  0  0  0  0  0  0  0  0  0  0
    5.4718   -4.9348    0.0000 C   0  0  0  0  0  0  0  0  0  0  0  0
    3.4214   -2.6822    0.0000 N   0  0  0  0  0  0  0  0  0  0  0  0
    4.8670   -3.5480    0.0000 N   0  0  0  0  0  0  0  0  0  0  0  0
    1.8387   -4.9664    0.0000 S   0  0  0  0  0  0  0  0  0  0  0  0
    8.3783   -3.6015    0.0000 N   0  0  0  0  0  0  0  0  0  0  0  0
    1.9714   -3.6015    0.0000 N   0  0  0  0  0  0  0  0  0  0  0  0
    7.7149   -4.0944    0.0000 N   0  0  0  0  0  0  0  0  0  0  0  0
   10.4537   -4.1683    0.0000 N   0  0  0  0  0  0  0  0  0  0  0  0
    7.9613   -4.9095    0.0000 N   0  0  0  0  0  0  0  0  0  0  0  0
    6.2837   -4.9664    0.0000 N   0  0  0  0  0  0  0  0  0  0  0  0
   12.0273   -4.2175    0.0000 C   0  0  0  0  0  0  0  0  0  0  0  0
    4.1323   -2.2747    0.0000 O   0  0  0  0  0  0  0  0  0  0  0  0
  5  6  1  0  0  0  0
  6  7  1  0  0  0  0
  5  7  1  0  0  0  0
  9 10  1  0  0  0  0
 11 12  1  0  0  0  0
 12 13  1  0  0  0  0
 10 14  1  0  0  0  0
  2 15  1  0  0  0  0
 15 16  1  0  0  0  0
  3 17  1  0  0  0  0
  8 18  2  0  0  0  0
  5 23  1  0  0  0  0
  1 23  1  0  0  0  0
 21 23  2  0  0  0  0
  8 24  1  0  0  0  0
 20 25  2  0  0  0  0
 24 25  1  0  0  0  0
 19 26  2  0  0  0  0
 14 27  1  0  0  0  0
 22 27  2  0  0  0  0
 24 28  2  0  0  0  0
 14 29  1  0  0  0  0
 25 29  1  0  0  0  0
 17 30  1  0  0  0  0
 18 30  1  0  0  0  0
 12 31  2  0  0  0  0
  8 32  1  0  0  0  0
 17 32  2  0  0  0  0
  9 33  1  0  0  0  0
 31 33  1  0  0  0  0
 11 34  1  0  0  0  0
 26 34  1  0  0  0  0
 13 35  2  0  0  0  0
 33 35  1  0  0  0  0
  4 36  1  0  0  0  0
 10 36  1  0  0  0  0
 27 36  1  0  0  0  0
 16 37  1  0  0  0  0
 26 37  1  0  0  0  0
  5 38  1  0  0  0  0
 28 38  1  0  0  0  0
M  END
> <ID>
SCHEMBL21168108

> <InChIKey>
GPDFJODPCKFIIK-MUXKCCDJSA-N

> <MW>
566.61

> <Series_Name>
Series_14

$$$$
SCHEMBL21168110
  Mrv1719007231912372D 0   0.00000     0.00000     0

 37 40  0  0  0  0              1 V2000 
    5.7954   -1.4603    0.0000 O   0  0  0  0  0  0  0  0  0  0  0  0
   12.2068   -4.2363    0.0000 N   0  0  0  0  0  0  0  0  0  0  0  0
    0.3879   -4.2743    0.0000 N   0  0  0  0  0  0  0  0  0  0  0  0
    4.1868   -1.4526    0.0000 C   0  0  0  0  0  0  0  0  0  0  0  0
    3.8027   -0.7453    0.0000 C   0  0  0  0  0  0  0  0  0  0  0  0
    3.4072   -1.4501    0.0000 C   0  0  0  0  0  0  0  0  0  0  0  0
    2.7684   -4.0106    0.0000 C   0  0  0  0  0  0  0  0  0  0  0  0
    6.9210   -3.7571    0.0000 C   0  0  0  0  0  0  0  0  0  0  0  0
    6.3937   -4.1982    0.0000 C   0  0  0  0  0  0  0  0  0  0  0  0
   11.2104   -3.7571    0.0000 C   0  0  0  0  0  0  0  0  0  0  0  0
   10.4803   -4.1678    0.0000 C   0  0  0  0  0  0  0  0  0  0  0  0
    9.7806   -3.7571    0.0000 C   0  0  0  0  0  0  0  0  0  0  0  0
    9.0910   -4.1728    0.0000 C   0  0  0  0  0  0  0  0  0  0  0  0
    8.8375   -5.0044    0.0000 C   0  0  0  0  0  0  0  0  0  0  0  0
    5.5570   -4.1931    0.0000 C   0  0  0  0  0  0  0  0  0  0  0  0
    1.4653   -4.3047    0.0000 C   0  0  0  0  0  0  0  0  0  0  0  0
    2.6923   -4.8523    0.0000 C   0  0  0  0  0  0  0  0  0  0  0  0
    4.2058   -4.0055    0.0000 C   0  0  0  0  0  0  0  0  0  0  0  0
    4.2058   -4.8827    0.0000 O   0  0  0  0  0  0  0  0  0  0  0  0
    5.5824   -5.0386    0.0000 C   0  0  0  0  0  0  0  0  0  0  0  0
    4.9892   -5.6660    0.0000 O   0  0  0  0  0  0  0  0  0  0  0  0
    3.4833   -3.6100    0.0000 C   0  0  0  0  0  0  0  0  0  0  0  0
    4.9334   -1.0343    0.0000 C   0  0  0  0  0  0  0  0  0  0  0  0
    4.9359   -0.1749    0.0000 O   0  0  0  0  0  0  0  0  0  0  0  0
    4.9287   -3.6078    0.0000 N   0  0  0  0  0  0  0  0  0  0  0  0
    3.4985   -2.7380    0.0000 N   0  0  0  0  0  0  0  0  0  0  0  0
    7.7728   -4.1754    0.0000 N   0  0  0  0  0  0  0  0  0  0  0  0
    8.4497   -3.6735    0.0000 N   0  0  0  0  0  0  0  0  0  0  0  0
    2.0154   -3.6735    0.0000 N   0  0  0  0  0  0  0  0  0  0  0  0
    6.3962   -5.0576    0.0000 N   0  0  0  0  0  0  0  0  0  0  0  0
    1.8785   -5.0576    0.0000 S   0  0  0  0  0  0  0  0  0  0  0  0
    8.0237   -4.9968    0.0000 N   0  0  0  0  0  0  0  0  0  0  0  0
    4.2058   -2.3197    0.0000 O   0  0  0  0  0  0  0  0  0  0  0  0
    7.2539   -5.0664    0.0000 O   0  0  0  0  0  0  0  0  0  0  0  0
    6.8207   -5.4909    0.0000 S   0  0  0  0  0  0  0  0  0  0  0  0
    6.3874   -5.9153    0.0000 O   0  0  0  0  0  0  0  0  0  0  0  0
    7.2452   -5.9241    0.0000 O   0  0  0  0  0  0  0  0  0  0  0  0
  4  5  1  0  0  0  0
  5  6  1  0  0  0  0
  4  6  1  0  0  0  0
  8  9  1  0  0  0  0
  2 10  1  0  0  0  0
 10 11  1  0  0  0  0
 11 12  1  0  0  0  0
 12 13  1  0  0  0  0
 13 14  1  0  0  0  0
  9 15  1  0  0  0  0
  3 16  1  0  0  0  0
  7 17  2  0  0  0  0
 18 19  2  0  0  0  0
 15 20  1  0  0  0  0
 20 21  2  0  0  0  0
 18 22  1  0  0  0  0
  7 22  1  0  0  0  0
  4 23  1  0  0  0  0
  1 23  1  0  0  0  0
 23 24  2  0  0  0  0
 15 25  1  0  0  0  0
 18 25  1  0  0  0  0
 22 26  2  0  0  0  0
  8 27  1  0  0  0  0
 13 28  2  0  0  0  0
 27 28  1  0  0  0  0
  7 29  1  0  0  0  0
 16 29  2  0  0  0  0
  9 30  1  0  0  0  0
 20 30  1  0  0  0  0
 16 31  1  0  0  0  0
 17 31  1  0  0  0  0
 14 32  2  0  0  0  0
 27 32  1  0  0  0  0
  4 33  1  0  0  0  0
 26 33  1  0  0  0  0
 30 35  1  0  0  0  0
 34 35  1  0  0  0  0
 35 36  2  0  0  0  0
 35 37  2  0  0  0  0
M  END
> <ID>
SCHEMBL21168110

> <InChIKey>
XZNZEBSNIWBIDU-ROTLSHHCSA-N

> <MW>
557.56

> <Series_Name>
Series_14

$$$$
SCHEMBL21168120
  Mrv1719007231912382D 0   0.00000     0.00000     0

 43 46  0  0  0  0              1 V2000 
    5.8469   -1.4304    0.0000 O   0  0  0  0  0  0  0  0  0  0  0  0
   15.4754   -3.5939    0.0000 N   0  0  0  0  0  0  0  0  0  0  0  0
    0.3934   -4.2824    0.0000 N   0  0  0  0  0  0  0  0  0  0  0  0
   10.1203   -4.7919    0.0000 C   0  0  0  0  0  0  0  0  0  0  0  0
    4.2197   -1.4304    0.0000 C   0  0  0  0  0  0  0  0  0  0  0  0
    3.8264   -0.7331    0.0000 C   0  0  0  0  0  0  0  0  0  0  0  0
    3.4688   -1.4483    0.0000 C   0  0  0  0  0  0  0  0  0  0  0  0
   10.1024   -3.1291    0.0000 C   0  0  0  0  0  0  0  0  0  0  0  0
    9.4229   -3.5284    0.0000 C   0  0  0  0  0  0  0  0  0  0  0  0
    9.4229   -4.3866    0.0000 C   0  0  0  0  0  0  0  0  0  0  0  0
   14.4831   -3.1291    0.0000 C   0  0  0  0  0  0  0  0  0  0  0  0
   13.7679   -3.5403    0.0000 C   0  0  0  0  0  0  0  0  0  0  0  0
   13.0348   -3.1291    0.0000 C   0  0  0  0  0  0  0  0  0  0  0  0
    2.8072   -3.9814    0.0000 C   0  0  0  0  0  0  0  0  0  0  0  0
    7.1879   -3.5582    0.0000 C   0  0  0  0  0  0  0  0  0  0  0  0
    6.5502   -4.0231    0.0000 C   0  0  0  0  0  0  0  0  0  0  0  0
    5.7336   -4.0231    0.0000 C   0  0  0  0  0  0  0  0  0  0  0  0
    1.4900   -4.2555    0.0000 C   0  0  0  0  0  0  0  0  0  0  0  0
    2.6999   -4.7919    0.0000 C   0  0  0  0  0  0  0  0  0  0  0  0
    5.7470   -4.8486    0.0000 C   0  0  0  0  0  0  0  0  0  0  0  0
    5.1317   -5.4356    0.0000 O   0  0  0  0  0  0  0  0  0  0  0  0
    4.9856   -1.0192    0.0000 C   0  0  0  0  0  0  0  0  0  0  0  0
    4.9707   -0.1788    0.0000 C   0  0  0  0  0  0  0  0  0  0  0  0
    3.5373   -3.5403    0.0000 C   0  0  0  0  0  0  0  0  0  0  0  0
   11.7563   -2.2887    0.0000 N   0  0  0  0  0  0  0  0  0  0  0  0
    4.2466   -4.8098    0.0000 O   0  0  0  0  0  0  0  0  0  0  0  0
   11.5954   -3.1291    0.0000 C   0  0  0  0  0  0  0  0  0  0  0  0
    4.2377   -3.9694    0.0000 C   0  0  0  0  0  0  0  0  0  0  0  0
    2.0384   -3.6118    0.0000 N   0  0  0  0  0  0  0  0  0  0  0  0
    3.5314   -2.7089    0.0000 N   0  0  0  0  0  0  0  0  0  0  0  0
    5.0795   -3.4495    0.0000 N   0  0  0  0  0  0  0  0  0  0  0  0
    8.6183   -3.2810    0.0000 N   0  0  0  0  0  0  0  0  0  0  0  0
   10.8313   -3.5312    0.0000 N   0  0  0  0  0  0  0  0  0  0  0  0
   12.3084   -3.5326    0.0000 N   0  0  0  0  0  0  0  0  0  0  0  0
    6.5531   -4.8545    0.0000 N   0  0  0  0  0  0  0  0  0  0  0  0
    1.8953   -4.9707    0.0000 S   0  0  0  0  0  0  0  0  0  0  0  0
    4.2466   -2.2887    0.0000 O   0  0  0  0  0  0  0  0  0  0  0  0
    8.6183   -4.6668    0.0000 N   0  0  0  0  0  0  0  0  0  0  0  0
    8.1266   -3.9605    0.0000 N   0  0  0  0  0  0  0  0  0  0  0  0
    7.4155   -4.8561    0.0000 O   0  0  0  0  0  0  0  0  0  0  0  0
    6.9836   -5.2866    0.0000 S   0  0  0  0  0  0  0  0  0  0  0  0
    6.5516   -5.7170    0.0000 O   0  0  0  0  0  0  0  0  0  0  0  0
    7.4140   -5.7185    0.0000 O   0  0  0  0  0  0  0  0  0  0  0  0
  5  6  1  0  0  0  0
  6  7  1  0  0  0  0
  5  7  1  0  0  0  0
  8  9  1  0  0  0  0
  9 10  1  0  0  0  0
  4 10  1  0  0  0  0
  2 11  1  0  0  0  0
 11 12  1  0  0  0  0
 12 13  1  0  0  0  0
 15 16  1  0  0  0  0
 16 17  1  0  0  0  0
  3 18  1  0  0  0  0
 14 19  2  0  0  0  0
 17 20  1  0  0  0  0
 20 21  2  0  0  0  0
  5 22  1  0  0  0  0
  1 22  1  0  0  0  0
 22 23  2  0  0  0  0
 14 24  1  0  0  0  0
 25 27  2  0  0  0  0
 24 28  1  0  0  0  0
 26 28  2  0  0  0  0
 14 29  1  0  0  0  0
 18 29  2  0  0  0  0
 24 30  2  0  0  0  0
 17 31  1  0  0  0  0
 28 31  1  0  0  0  0
  9 32  2  0  0  0  0
  8 33  1  0  0  0  0
 27 33  1  0  0  0  0
 13 34  1  0  0  0  0
 27 34  1  0  0  0  0
 16 35  1  0  0  0  0
 20 35  1  0  0  0  0
 18 36  1  0  0  0  0
 19 36  1  0  0  0  0
  5 37  1  0  0  0  0
 30 37  1  0  0  0  0
 10 38  2  0  0  0  0
 15 39  1  0  0  0  0
 32 39  1  0  0  0  0
 38 39  1  0  0  0  0
 35 41  1  0  0  0  0
 40 41  1  0  0  0  0
 41 42  2  0  0  0  0
 41 43  2  0  0  0  0
M  END
> <ID>
SCHEMBL21168120

> <InChIKey>
SIMZBOAUBVBLDL-ZMGVVAQMSA-N

> <MW>
640.7

> <Series_Name>
Series_14

$$$$
SCHEMBL21168149
  Mrv1719007231912392D 0   0.00000     0.00000     0

 36 39  0  0  1  0              1 V2000 
    5.1490   -5.5855    0.0000 O   0  0  0  0  0  0  0  0  0  0  0  0
    5.7543   -4.9799    0.0000 C   0  0  0  0  0  0  0  0  0  0  0  0
    5.7499   -4.1700    0.0000 C   0  0  0  0  0  0  0  0  0  0  0  0
    5.1142   -3.3513    0.0000 N   0  0  0  0  0  0  0  0  0  0  0  0
    6.5523   -4.1574    0.0000 C   0  0  1  0  0  0  0  0  0  0  0  0
    7.2963   -3.6872    0.0000 C   0  0  0  0  0  0  0  0  0  0  0  0
    8.0988   -4.0843    0.0000 N   0  0  0  0  0  0  0  0  0  0  0  0
    6.5455   -4.9919    0.0000 N   0  0  0  0  0  0  0  0  0  0  0  0
    2.7550   -4.9481    0.0000 C   0  0  0  0  0  0  0  0  0  0  0  0
    2.8458   -4.1327    0.0000 C   0  0  0  0  0  0  0  0  0  0  0  0
    2.0945   -3.7353    0.0000 N   0  0  0  0  0  0  0  0  0  0  0  0
    3.4893   -3.7217    0.0000 C   0  0  0  0  0  0  0  0  0  0  0  0
    3.5433   -2.8101    0.0000 N   0  0  0  0  0  0  0  0  0  0  0  0
    4.2263   -4.0949    0.0000 C   0  0  0  0  0  0  0  0  0  0  0  0
    4.2763   -4.9396    0.0000 O   0  0  0  0  0  0  0  0  0  0  0  0
    1.9548   -5.1142    0.0000 S   0  0  0  0  0  0  0  0  0  0  0  0
    8.5702   -4.7999    0.0000 N   0  0  0  0  0  0  0  0  0  0  0  0
    9.3620   -4.5575    0.0000 C   0  0  0  0  0  0  0  0  0  0  0  0
    8.5876   -3.4036    0.0000 N   0  0  0  0  0  0  0  0  0  0  0  0
    9.3773   -3.6849    0.0000 C   0  0  0  0  0  0  0  0  0  0  0  0
   10.0954   -3.2533    0.0000 C   0  0  0  0  0  0  0  0  0  0  0  0
   10.9614   -3.6654    0.0000 N   0  0  0  0  0  0  0  0  0  0  0  0
   10.1104   -4.9047    0.0000 C   0  0  0  0  0  0  0  0  0  0  0  0
    0.4626   -4.2763    0.0000 N   0  0  0  0  0  0  0  0  0  0  0  0
    1.5466   -4.3833    0.0000 C   0  0  0  0  0  0  0  0  0  0  0  0
    3.8705   -0.8302    0.0000 C   0  0  0  0  0  0  0  0  0  0  0  0
    4.2540   -1.5098    0.0000 C   0  0  0  0  0  0  0  0  0  0  0  0
    4.9919   -0.2444    0.0000 O   0  0  0  0  0  0  0  0  0  0  0  0
    4.7694   -1.2392    0.0000 C   0  0  0  0  0  0  0  0  0  0  0  0
    5.8646   -1.5186    0.0000 O   0  0  0  0  0  0  0  0  0  0  0  0
    4.2763   -2.3913    0.0000 O   0  0  0  0  0  0  0  0  0  0  0  0
    3.4852   -1.5561    0.0000 C   0  0  0  0  0  0  0  0  0  0  0  0
    6.9926   -5.2497    0.0000 S   0  0  0  0  0  0  0  0  0  0  0  0
    6.7349   -5.6969    0.0000 O   0  0  0  0  0  0  0  0  0  0  0  0
    7.4398   -5.5074    0.0000 O   0  0  0  0  0  0  0  0  0  0  0  0
    7.2503   -4.8024    0.0000 O   0  0  0  0  0  0  0  0  0  0  0  0
  1  2  2  0  0  0  0
  2  3  1  0  0  0  0
  2  8  1  0  0  0  0
  3  4  1  0  0  0  0
  5  3  1  0  0  0  0
  4 14  1  0  0  0  0
  5  6  1  1  0  0  0
  5  8  1  0  0  0  0
  6  7  1  0  0  0  0
  7 17  1  0  0  0  0
  7 19  1  0  0  0  0
  8 33  1  0  0  0  0
  9 10  2  0  0  0  0
 10 12  1  0  0  0  0
 11 10  1  0  0  0  0
 12 13  2  0  0  0  0
 12 14  1  0  0  0  0
 13 31  1  0  0  0  0
 14 15  2  0  0  0  0
 16  9  1  0  0  0  0
 16 25  1  0  0  0  0
 17 18  2  0  0  0  0
 18 23  1  0  0  0  0
 19 20  2  0  0  0  0
 20 21  1  0  0  0  0
 20 18  1  0  0  0  0
 21 22  1  0  0  0  0
 24 25  1  0  0  0  0
 25 11  2  0  0  0  0
 26 27  1  0  0  0  0
 26 32  1  0  0  0  0
 27 31  1  0  0  0  0
 28 29  2  0  0  0  0
 29 30  1  0  0  0  0
 29 27  1  0  0  0  0
 32 27  1  0  0  0  0
 33 34  2  0  0  0  0
 33 35  2  0  0  0  0
 33 36  1  0  0  0  0
M  END
> <ID>
SCHEMBL21168149

> <InChIKey>
WSVHVJFJJABDEM-RPKCLNMYSA-N

> <MW>
543.53

> <Series_Name>
Series_14

$$$$
SCHEMBL21168154
  Mrv1719007231912392D 0   0.00000     0.00000     0

 41 44  0  0  0  0              1 V2000 
    4.8557   -0.1702    0.0000 O   0  0  0  0  0  0  0  0  0  0  0  0
    5.7336   -1.4603    0.0000 O   0  0  0  0  0  0  0  0  0  0  0  0
    0.3852   -4.3271    0.0000 N   0  0  0  0  0  0  0  0  0  0  0  0
   13.6174   -6.5668    0.0000 N   0  0  0  0  0  0  0  0  0  0  0  0
    7.5971   -6.2622    0.0000 O   0  0  0  0  0  0  0  0  0  0  0  0
    4.8019   -1.0273    0.0000 C   0  0  0  0  0  0  0  0  0  0  0  0
    4.1390   -1.4334    0.0000 C   0  0  0  0  0  0  0  0  0  0  0  0
    3.7627   -0.7526    0.0000 C   0  0  0  0  0  0  0  0  0  0  0  0
    3.4043   -1.3080    0.0000 C   0  0  0  0  0  0  0  0  0  0  0  0
    3.4462   -3.5895    0.0000 C   0  0  0  0  0  0  0  0  0  0  0  0
    8.9588   -3.7269    0.0000 C   0  0  0  0  0  0  0  0  0  0  0  0
    8.7498   -4.5391    0.0000 C   0  0  0  0  0  0  0  0  0  0  0  0
    2.7474   -4.0255    0.0000 C   0  0  0  0  0  0  0  0  0  0  0  0
    2.6698   -4.8557    0.0000 C   0  0  0  0  0  0  0  0  0  0  0  0
    6.8087   -3.6194    0.0000 C   0  0  0  0  0  0  0  0  0  0  0  0
    6.2593   -4.1928    0.0000 C   0  0  0  0  0  0  0  0  0  0  0  0
    5.4708   -4.1868    0.0000 C   0  0  0  0  0  0  0  0  0  0  0  0
    1.4573   -4.3182    0.0000 C   0  0  0  0  0  0  0  0  0  0  0  0
    9.2634   -5.2320    0.0000 C   0  0  0  0  0  0  0  0  0  0  0  0
   12.0048   -6.1099    0.0000 C   0  0  0  0  0  0  0  0  0  0  0  0
   12.7753   -5.9128    0.0000 C   0  0  0  0  0  0  0  0  0  0  0  0
    4.9005   -5.6441    0.0000 O   0  0  0  0  0  0  0  0  0  0  0  0
    4.1718   -4.0136    0.0000 C   0  0  0  0  0  0  0  0  0  0  0  0
    4.1748   -4.8736    0.0000 O   0  0  0  0  0  0  0  0  0  0  0  0
   10.2489   -6.5131    0.0000 N   0  0  0  0  0  0  0  0  0  0  0  0
    6.2801   -6.2622    0.0000 O   0  0  0  0  0  0  0  0  0  0  0  0
    7.4358   -5.0438    0.0000 O   0  0  0  0  0  0  0  0  0  0  0  0
    5.4739   -4.9990    0.0000 C   0  0  0  0  0  0  0  0  0  0  0  0
   10.6341   -5.6948    0.0000 C   0  0  0  0  0  0  0  0  0  0  0  0
    1.9978   -3.6821    0.0000 N   0  0  0  0  0  0  0  0  0  0  0  0
   11.4217   -5.4990    0.0000 N   0  0  0  0  0  0  0  0  0  0  0  0
    7.6509   -3.8075    0.0000 N   0  0  0  0  0  0  0  0  0  0  0  0
    3.4402   -2.7414    0.0000 N   0  0  0  0  0  0  0  0  0  0  0  0
   10.0787   -5.0886    0.0000 N   0  0  0  0  0  0  0  0  0  0  0  0
    4.8826   -3.5835    0.0000 N   0  0  0  0  0  0  0  0  0  0  0  0
    8.2780   -3.2610    0.0000 N   0  0  0  0  0  0  0  0  0  0  0  0
    6.8624   -5.6441    0.0000 S   0  0  0  0  0  0  0  0  0  0  0  0
    1.8545   -5.0617    0.0000 S   0  0  0  0  0  0  0  0  0  0  0  0
    7.9465   -4.5959    0.0000 N   0  0  0  0  0  0  0  0  0  0  0  0
    6.2891   -5.0438    0.0000 N   0  0  0  0  0  0  0  0  0  0  0  0
    4.1569   -2.3024    0.0000 O   0  0  0  0  0  0  0  0  0  0  0  0
  1  6  2  0  0  0  0
  2  6  1  0  0  0  0
  6  7  1  0  0  0  0
  7  8  1  0  0  0  0
  8  9  1  0  0  0  0
  7  9  1  0  0  0  0
 11 12  1  0  0  0  0
 10 13  1  0  0  0  0
 13 14  2  0  0  0  0
 15 16  1  0  0  0  0
 16 17  1  0  0  0  0
  3 18  1  0  0  0  0
 12 19  1  0  0  0  0
 20 21  1  0  0  0  0
  4 21  1  0  0  0  0
 10 23  1  0  0  0  0
 23 24  2  0  0  0  0
 17 28  1  0  0  0  0
 22 28  2  0  0  0  0
 25 29  2  0  0  0  0
 13 30  1  0  0  0  0
 18 30  2  0  0  0  0
 20 31  1  0  0  0  0
 29 31  1  0  0  0  0
 15 32  1  0  0  0  0
 10 33  2  0  0  0  0
 19 34  1  0  0  0  0
 29 34  1  0  0  0  0
 17 35  1  0  0  0  0
 23 35  1  0  0  0  0
 11 36  2  0  0  0  0
 32 36  1  0  0  0  0
  5 37  1  0  0  0  0
 26 37  2  0  0  0  0
 27 37  2  0  0  0  0
 14 38  1  0  0  0  0
 18 38  1  0  0  0  0
 12 39  2  0  0  0  0
 32 39  1  0  0  0  0
 16 40  1  0  0  0  0
 28 40  1  0  0  0  0
 37 40  1  0  0  0  0
  7 41  1  0  0  0  0
 33 41  1  0  0  0  0
M  END
> <ID>
SCHEMBL21168154

> <InChIKey>
XVGNIIQAKPAYIR-ULPWCQAASA-N

> <MW>
614.61

> <Series_Name>
Series_14

$$$$
SCHEMBL21168155
  Mrv1719007231912392D 0   0.00000     0.00000     0

 41 44  0  0  0  0              1 V2000 
    5.7452   -1.4363    0.0000 O   0  0  0  0  0  0  0  0  0  0  0  0
    0.3860   -4.2730    0.0000 N   0  0  0  0  0  0  0  0  0  0  0  0
   13.6449   -6.5711    0.0000 N   0  0  0  0  0  0  0  0  0  0  0  0
    7.6124   -6.2659    0.0000 O   0  0  0  0  0  0  0  0  0  0  0  0
    3.7524   -0.7361    0.0000 C   0  0  0  0  0  0  0  0  0  0  0  0
    3.3574   -1.4184    0.0000 C   0  0  0  0  0  0  0  0  0  0  0  0
    4.1474   -1.4363    0.0000 C   0  0  0  0  0  0  0  0  0  0  0  0
    3.4651   -3.5968    0.0000 C   0  0  0  0  0  0  0  0  0  0  0  0
    8.9769   -3.7344    0.0000 C   0  0  0  0  0  0  0  0  0  0  0  0
    8.7675   -4.5483    0.0000 C   0  0  0  0  0  0  0  0  0  0  0  0
    6.8404   -3.6087    0.0000 C   0  0  0  0  0  0  0  0  0  0  0  0
    6.2719   -4.1952    0.0000 C   0  0  0  0  0  0  0  0  0  0  0  0
    2.7469   -4.0336    0.0000 C   0  0  0  0  0  0  0  0  0  0  0  0
    5.4759   -4.1952    0.0000 C   0  0  0  0  0  0  0  0  0  0  0  0
    1.4782   -4.3089    0.0000 C   0  0  0  0  0  0  0  0  0  0  0  0
    2.6751   -4.8655    0.0000 C   0  0  0  0  0  0  0  0  0  0  0  0
    9.2822   -5.2246    0.0000 C   0  0  0  0  0  0  0  0  0  0  0  0
   12.0111   -6.1043    0.0000 C   0  0  0  0  0  0  0  0  0  0  0  0
   12.8011   -5.9248    0.0000 C   0  0  0  0  0  0  0  0  0  0  0  0
    5.5118   -5.0136    0.0000 C   0  0  0  0  0  0  0  0  0  0  0  0
    4.9104   -5.6465    0.0000 O   0  0  0  0  0  0  0  0  0  0  0  0
    4.1833   -4.8835    0.0000 O   0  0  0  0  0  0  0  0  0  0  0  0
   10.4222   -6.5173    0.0000 C   0  0  0  0  0  0  0  0  0  0  0  0
    4.8655   -1.0324    0.0000 C   0  0  0  0  0  0  0  0  0  0  0  0
    4.8655   -0.1706    0.0000 O   0  0  0  0  0  0  0  0  0  0  0  0
    6.2929   -6.2659    0.0000 O   0  0  0  0  0  0  0  0  0  0  0  0
    7.4509   -5.0451    0.0000 O   0  0  0  0  0  0  0  0  0  0  0  0
    4.1802   -3.9888    0.0000 C   0  0  0  0  0  0  0  0  0  0  0  0
   10.6646   -5.6884    0.0000 C   0  0  0  0  0  0  0  0  0  0  0  0
    2.0019   -3.6716    0.0000 N   0  0  0  0  0  0  0  0  0  0  0  0
    7.6663   -3.7793    0.0000 N   0  0  0  0  0  0  0  0  0  0  0  0
    4.8924   -3.5818    0.0000 N   0  0  0  0  0  0  0  0  0  0  0  0
    8.2947   -3.2496    0.0000 N   0  0  0  0  0  0  0  0  0  0  0  0
    6.3018   -5.0451    0.0000 N   0  0  0  0  0  0  0  0  0  0  0  0
    7.9625   -4.5962    0.0000 N   0  0  0  0  0  0  0  0  0  0  0  0
   10.0318   -5.0606    0.0000 N   0  0  0  0  0  0  0  0  0  0  0  0
   11.4691   -5.5052    0.0000 N   0  0  0  0  0  0  0  0  0  0  0  0
    3.4471   -2.7380    0.0000 N   0  0  0  0  0  0  0  0  0  0  0  0
    4.1653   -2.3071    0.0000 O   0  0  0  0  0  0  0  0  0  0  0  0
    1.8672   -5.0720    0.0000 S   0  0  0  0  0  0  0  0  0  0  0  0
    6.8763   -5.6465    0.0000 S   0  0  0  0  0  0  0  0  0  0  0  0
  5  6  1  0  0  0  0
  6  7  1  0  0  0  0
  5  7  1  0  0  0  0
  9 10  1  0  0  0  0
 11 12  1  0  0  0  0
  8 13  1  0  0  0  0
 12 14  1  0  0  0  0
  2 15  1  0  0  0  0
 13 16  2  0  0  0  0
 10 17  1  0  0  0  0
 18 19  1  0  0  0  0
  3 19  1  0  0  0  0
 14 20  1  0  0  0  0
 20 21  2  0  0  0  0
  1 24  1  0  0  0  0
  7 24  1  0  0  0  0
 24 25  2  0  0  0  0
  8 28  1  0  0  0  0
 22 28  2  0  0  0  0
 23 29  2  0  0  0  0
 13 30  1  0  0  0  0
 15 30  2  0  0  0  0
 11 31  1  0  0  0  0
 14 32  1  0  0  0  0
 28 32  1  0  0  0  0
  9 33  2  0  0  0  0
 31 33  1  0  0  0  0
 12 34  1  0  0  0  0
 20 34  1  0  0  0  0
 10 35  2  0  0  0  0
 31 35  1  0  0  0  0
 17 36  1  0  0  0  0
 29 36  1  0  0  0  0
 18 37  1  0  0  0  0
 29 37  1  0  0  0  0
  8 38  2  0  0  0  0
  7 39  1  0  0  0  0
 38 39  1  0  0  0  0
 15 40  1  0  0  0  0
 16 40  1  0  0  0  0
  4 41  1  0  0  0  0
 26 41  2  0  0  0  0
 27 41  2  0  0  0  0
 34 41  1  0  0  0  0
M  END
> <ID>
SCHEMBL21168155

> <InChIKey>
WCNBVJJAEFBILX-NUJZUDFISA-N

> <MW>
613.63

> <Series_Name>
Series_14

$$$$
SCHEMBL21168217
  Mrv1719007231913212D 0   0.00000     0.00000     0

 39 42  0  0  0  0              1 V2000 
    5.8330   -1.3691    0.0000 O   0  0  0  0  0  0  0  0  0  0  0  0
    0.3932   -4.1289    0.0000 N   0  0  0  0  0  0  0  0  0  0  0  0
   13.2243   -6.6777    0.0000 N   0  0  0  0  0  0  0  0  0  0  0  0
    3.8158   -0.6602    0.0000 C   0  0  0  0  0  0  0  0  0  0  0  0
    3.4226   -1.3399    0.0000 C   0  0  0  0  0  0  0  0  0  0  0  0
    4.2054   -1.3435    0.0000 C   0  0  0  0  0  0  0  0  0  0  0  0
    3.5682   -3.4954    0.0000 C   0  0  0  0  0  0  0  0  0  0  0  0
    2.7963   -3.8838    0.0000 C   0  0  0  0  0  0  0  0  0  0  0  0
    7.0200   -3.6411    0.0000 C   0  0  0  0  0  0  0  0  0  0  0  0
    6.4277   -4.0634    0.0000 C   0  0  0  0  0  0  0  0  0  0  0  0
    5.6073   -4.0731    0.0000 C   0  0  0  0  0  0  0  0  0  0  0  0
    9.2483   -4.0780    0.0000 C   0  0  0  0  0  0  0  0  0  0  0  0
    8.9764   -4.8693    0.0000 C   0  0  0  0  0  0  0  0  0  0  0  0
    1.4758   -4.1799    0.0000 C   0  0  0  0  0  0  0  0  0  0  0  0
    2.7235   -4.6897    0.0000 C   0  0  0  0  0  0  0  0  0  0  0  0
    9.4668   -5.5490    0.0000 C   0  0  0  0  0  0  0  0  0  0  0  0
   10.7921   -6.1461    0.0000 C   0  0  0  0  0  0  0  0  0  0  0  0
   11.6223   -6.0442    0.0000 C   0  0  0  0  0  0  0  0  0  0  0  0
   12.1175   -6.7141    0.0000 C   0  0  0  0  0  0  0  0  0  0  0  0
    5.0101   -5.5126    0.0000 O   0  0  0  0  0  0  0  0  0  0  0  0
    4.2285   -3.8741    0.0000 C   0  0  0  0  0  0  0  0  0  0  0  0
    4.2236   -4.7407    0.0000 O   0  0  0  0  0  0  0  0  0  0  0  0
    4.9567   -0.9467    0.0000 C   0  0  0  0  0  0  0  0  0  0  0  0
    4.9591   -0.1675    0.0000 O   0  0  0  0  0  0  0  0  0  0  0  0
    5.6267   -4.8863    0.0000 C   0  0  0  0  0  0  0  0  0  0  0  0
    4.9613   -3.5041    0.0000 N   0  0  0  0  0  0  0  0  0  0  0  0
    3.5246   -2.6289    0.0000 N   0  0  0  0  0  0  0  0  0  0  0  0
   10.4717   -5.4834    0.0000 N   0  0  0  0  0  0  0  0  0  0  0  0
    6.4301   -4.9154    0.0000 N   0  0  0  0  0  0  0  0  0  0  0  0
    8.1560   -4.8717    0.0000 N   0  0  0  0  0  0  0  0  0  0  0  0
    4.2236   -2.2138    0.0000 O   0  0  0  0  0  0  0  0  0  0  0  0
    1.8934   -4.9081    0.0000 S   0  0  0  0  0  0  0  0  0  0  0  0
    8.5784   -3.5682    0.0000 N   0  0  0  0  0  0  0  0  0  0  0  0
    7.8938   -4.0634    0.0000 N   0  0  0  0  0  0  0  0  0  0  0  0
    2.0390   -3.5464    0.0000 N   0  0  0  0  0  0  0  0  0  0  0  0
    7.3159   -4.9302    0.0000 O   0  0  0  0  0  0  0  0  0  0  0  0
    6.8656   -5.3657    0.0000 S   0  0  0  0  0  0  0  0  0  0  0  0
    6.4154   -5.8012    0.0000 O   0  0  0  0  0  0  0  0  0  0  0  0
    7.3011   -5.8160    0.0000 O   0  0  0  0  0  0  0  0  0  0  0  0
  4  5  1  0  0  0  0
  5  6  1  0  0  0  0
  4  6  1  0  0  0  0
  7  8  1  0  0  0  0
  9 10  1  0  0  0  0
 10 11  1  0  0  0  0
 12 13  1  0  0  0  0
  2 14  1  0  0  0  0
  8 15  2  0  0  0  0
 13 16  1  0  0  0  0
 17 18  1  0  0  0  0
 18 19  1  0  0  0  0
  3 19  1  0  0  0  0
  7 21  1  0  0  0  0
 21 22  2  0  0  0  0
  6 23  1  0  0  0  0
  1 23  1  0  0  0  0
 23 24  2  0  0  0  0
 11 25  1  0  0  0  0
 20 25  2  0  0  0  0
 11 26  1  0  0  0  0
 21 26  1  0  0  0  0
  7 27  2  0  0  0  0
 16 28  1  0  0  0  0
 17 28  1  0  0  0  0
 10 29  1  0  0  0  0
 25 29  1  0  0  0  0
 13 30  2  0  0  0  0
  6 31  1  0  0  0  0
 27 31  1  0  0  0  0
 14 32  1  0  0  0  0
 15 32  1  0  0  0  0
 12 33  2  0  0  0  0
  9 34  1  0  0  0  0
 30 34  1  0  0  0  0
 33 34  1  0  0  0  0
  8 35  1  0  0  0  0
 14 35  2  0  0  0  0
 29 37  1  0  0  0  0
 36 37  1  0  0  0  0
 37 38  2  0  0  0  0
 37 39  2  0  0  0  0
M  END
> <ID>
SCHEMBL21168217

> <InChIKey>
OTSKVUSEOZMOOK-WKIKZPBSSA-N

> <MW>
586.6

> <Series_Name>
Series_14

$$$$
SCHEMBL21168233
  Mrv1719007231913282D 0   0.00000     0.00000     0

 40 44  0  0  0  0              1 V2000 
    5.8047   -1.3931    0.0000 O   0  0  0  0  0  0  0  0  0  0  0  0
    0.3923   -4.2514    0.0000 N   0  0  0  0  0  0  0  0  0  0  0  0
    3.7951   -0.6886    0.0000 C   0  0  0  0  0  0  0  0  0  0  0  0
    3.4107   -1.3611    0.0000 C   0  0  0  0  0  0  0  0  0  0  0  0
    4.1834   -1.3691    0.0000 C   0  0  0  0  0  0  0  0  0  0  0  0
    2.7863   -3.9499    0.0000 C   0  0  0  0  0  0  0  0  0  0  0  0
    7.0457   -3.6509    0.0000 C   0  0  0  0  0  0  0  0  0  0  0  0
    6.3945   -4.1313    0.0000 C   0  0  0  0  0  0  0  0  0  0  0  0
    5.5832   -4.1313    0.0000 C   0  0  0  0  0  0  0  0  0  0  0  0
    9.2074   -4.1474    0.0000 C   0  0  0  0  0  0  0  0  0  0  0  0
    8.9406   -4.9480    0.0000 C   0  0  0  0  0  0  0  0  0  0  0  0
    1.4785   -4.2274    0.0000 C   0  0  0  0  0  0  0  0  0  0  0  0
    2.7062   -4.7718    0.0000 C   0  0  0  0  0  0  0  0  0  0  0  0
    9.4316   -5.6365    0.0000 C   0  0  0  0  0  0  0  0  0  0  0  0
   10.7713   -6.2290    0.0000 C   0  0  0  0  0  0  0  0  0  0  0  0
   11.5774   -6.1970    0.0000 C   0  0  0  0  0  0  0  0  0  0  0  0
   10.5685   -7.0937    0.0000 C   0  0  0  0  0  0  0  0  0  0  0  0
   11.1770   -7.5100    0.0000 C   0  0  0  0  0  0  0  0  0  0  0  0
    5.6072   -4.9560    0.0000 C   0  0  0  0  0  0  0  0  0  0  0  0
    4.9960   -5.5885    0.0000 O   0  0  0  0  0  0  0  0  0  0  0  0
    4.2167   -3.9312    0.0000 C   0  0  0  0  0  0  0  0  0  0  0  0
    4.2114   -4.8039    0.0000 O   0  0  0  0  0  0  0  0  0  0  0  0
    3.5068   -3.5388    0.0000 C   0  0  0  0  0  0  0  0  0  0  0  0
    4.9453   -0.9608    0.0000 C   0  0  0  0  0  0  0  0  0  0  0  0
    4.9400   -0.1762    0.0000 O   0  0  0  0  0  0  0  0  0  0  0  0
    3.5148   -2.6662    0.0000 N   0  0  0  0  0  0  0  0  0  0  0  0
    6.3972   -4.9880    0.0000 N   0  0  0  0  0  0  0  0  0  0  0  0
    2.0176   -3.5949    0.0000 N   0  0  0  0  0  0  0  0  0  0  0  0
    7.8624   -4.1233    0.0000 N   0  0  0  0  0  0  0  0  0  0  0  0
    1.8815   -4.9800    0.0000 S   0  0  0  0  0  0  0  0  0  0  0  0
    4.2114   -2.2418    0.0000 O   0  0  0  0  0  0  0  0  0  0  0  0
    4.9289   -3.5213    0.0000 N   0  0  0  0  0  0  0  0  0  0  0  0
    8.1266   -4.9480    0.0000 N   0  0  0  0  0  0  0  0  0  0  0  0
   10.4244   -5.5565    0.0000 N   0  0  0  0  0  0  0  0  0  0  0  0
   12.0337   -7.0056    0.0000 N   0  0  0  0  0  0  0  0  0  0  0  0
    8.5429   -3.6269    0.0000 N   0  0  0  0  0  0  0  0  0  0  0  0
    7.2900   -5.0048    0.0000 O   0  0  0  0  0  0  0  0  0  0  0  0
    6.8352   -5.4428    0.0000 S   0  0  0  0  0  0  0  0  0  0  0  0
    6.3805   -5.8807    0.0000 O   0  0  0  0  0  0  0  0  0  0  0  0
    7.2732   -5.8975    0.0000 O   0  0  0  0  0  0  0  0  0  0  0  0
  3  4  1  0  0  0  0
  4  5  1  0  0  0  0
  3  5  1  0  0  0  0
  7  8  1  0  0  0  0
  8  9  1  0  0  0  0
 10 11  1  0  0  0  0
  2 12  1  0  0  0  0
  6 13  2  0  0  0  0
 11 14  1  0  0  0  0
 15 16  1  0  0  0  0
 15 17  1  0  0  0  0
 17 18  1  0  0  0  0
  9 19  1  0  0  0  0
 19 20  2  0  0  0  0
 21 22  2  0  0  0  0
 21 23  1  0  0  0  0
  6 23  1  0  0  0  0
  5 24  1  0  0  0  0
  1 24  1  0  0  0  0
 24 25  2  0  0  0  0
 23 26  2  0  0  0  0
  8 27  1  0  0  0  0
 19 27  1  0  0  0  0
  6 28  1  0  0  0  0
 12 28  2  0  0  0  0
  7 29  1  0  0  0  0
 12 30  1  0  0  0  0
 13 30  1  0  0  0  0
  5 31  1  0  0  0  0
 26 31  1  0  0  0  0
  9 32  1  0  0  0  0
 21 32  1  0  0  0  0
 11 33  2  0  0  0  0
 29 33  1  0  0  0  0
 14 34  1  0  0  0  0
 15 34  1  0  0  0  0
 16 35  1  0  0  0  0
 18 35  1  0  0  0  0
 10 36  2  0  0  0  0
 29 36  1  0  0  0  0
 27 38  1  0  0  0  0
 37 38  1  0  0  0  0
 38 39  2  0  0  0  0
 38 40  2  0  0  0  0
M  END
> <ID>
SCHEMBL21168233

> <InChIKey>
WUNYXZXCGJJTMT-MUXKCCDJSA-N

> <MW>
598.61

> <Series_Name>
Series_14

$$$$
SCHEMBL21168236
  Mrv1719007231913302D 0   0.00000     0.00000     0

 38 41  0  0  1  0              1 V2000 
   10.2429   -6.5167    0.0000 O   0  0  0  0  0  0  0  0  0  0  0  0
   10.4426   -5.6931    0.0000 C   0  0  0  0  0  0  0  0  0  0  0  0
    9.9074   -4.9183    0.0000 N   0  0  0  0  0  0  0  0  0  0  0  0
   12.6535   -5.9488    0.0000 C   0  0  0  0  0  0  0  0  0  0  0  0
   13.3865   -6.5167    0.0000 N   0  0  0  0  0  0  0  0  0  0  0  0
   11.8604   -6.1388    0.0000 C   0  0  0  0  0  0  0  0  0  0  0  0
   11.2887   -5.5439    0.0000 C   0  0  0  0  0  0  0  0  0  0  0  0
    4.6800   -5.6690    0.0000 O   0  0  0  0  0  0  0  0  0  0  0  0
    5.2908   -5.0995    0.0000 C   0  0  0  0  0  0  0  0  0  0  0  0
    5.2938   -4.2677    0.0000 C   0  0  1  0  0  0  0  0  0  0  0  0
    4.6888   -3.6557    0.0000 N   0  0  0  0  0  0  0  0  0  0  0  0
    6.1146   -4.2609    0.0000 C   0  0  1  0  0  0  0  0  0  0  0  0
    6.6491   -3.6993    0.0000 C   0  0  0  0  0  0  0  0  0  0  0  0
    7.4703   -3.8676    0.0000 N   0  0  0  0  0  0  0  0  0  0  0  0
    6.0928   -5.0685    0.0000 N   0  0  0  0  0  0  0  0  0  0  0  0
    6.4990   -5.5181    0.0000 C   0  0  0  0  0  0  0  0  0  0  0  0
    7.7705   -4.6270    0.0000 N   0  0  0  0  0  0  0  0  0  0  0  0
    8.5790   -4.6134    0.0000 C   0  0  0  0  0  0  0  0  0  0  0  0
    8.1061   -3.3378    0.0000 N   0  0  0  0  0  0  0  0  0  0  0  0
    8.8179   -3.8120    0.0000 C   0  0  0  0  0  0  0  0  0  0  0  0
    9.0990   -5.2627    0.0000 C   0  0  0  0  0  0  0  0  0  0  0  0
    1.8013   -3.6557    0.0000 N   0  0  0  0  0  0  0  0  0  0  0  0
    2.5736   -4.0107    0.0000 C   0  0  0  0  0  0  0  0  0  0  0  0
    3.2495   -2.7374    0.0000 N   0  0  0  0  0  0  0  0  0  0  0  0
    3.2672   -3.6074    0.0000 C   0  0  0  0  0  0  0  0  0  0  0  0
    4.0501   -3.9869    0.0000 C   0  0  0  0  0  0  0  0  0  0  0  0
    3.9735   -4.8036    0.0000 O   0  0  0  0  0  0  0  0  0  0  0  0
    2.4763   -4.8377    0.0000 C   0  0  0  0  0  0  0  0  0  0  0  0
    1.6600   -5.0155    0.0000 S   0  0  0  0  0  0  0  0  0  0  0  0
    0.3709   -4.2914    0.0000 N   0  0  0  0  0  0  0  0  0  0  0  0
    1.2712   -4.2977    0.0000 C   0  0  0  0  0  0  0  0  0  0  0  0
    3.1896   -1.4663    0.0000 C   0  0  0  0  0  0  0  0  0  0  0  0
    3.5884   -0.8077    0.0000 C   0  0  0  0  0  0  0  0  0  0  0  0
    3.9551   -1.4781    0.0000 C   0  0  0  0  0  0  0  0  0  0  0  0
    4.6359   -1.0985    0.0000 C   0  0  0  0  0  0  0  0  0  0  0  0
    4.6623   -0.2473    0.0000 O   0  0  0  0  0  0  0  0  0  0  0  0
    5.3952   -1.4834    0.0000 O   0  0  0  0  0  0  0  0  0  0  0  0
    3.9735   -2.3135    0.0000 O   0  0  0  0  0  0  0  0  0  0  0  0
  1  2  2  0  0  0  0
  2  3  1  0  0  0  0
  2  7  1  0  0  0  0
  4  5  1  0  0  0  0
  4  6  1  0  0  0  0
  6  7  1  0  0  0  0
  8  9  2  0  0  0  0
 10  9  1  0  0  0  0
  9 15  1  0  0  0  0
 10 11  1  1  0  0  0
 12 13  1  1  0  0  0
 12 15  1  0  0  0  0
 10 12  1  0  0  0  0
 14 13  1  0  0  0  0
 14 19  1  0  0  0  0
 14 17  1  0  0  0  0
 15 16  1  0  0  0  0
 17 18  2  0  0  0  0
 18 21  1  0  0  0  0
 19 20  2  0  0  0  0
 20 18  1  0  0  0  0
 21  3  1  0  0  0  0
 22 23  1  0  0  0  0
 23 25  1  0  0  0  0
 24 25  2  0  0  0  0
 26 25  1  0  0  0  0
 26 11  1  0  0  0  0
 27 26  2  0  0  0  0
 28 23  2  0  0  0  0
 29 28  1  0  0  0  0
 29 31  1  0  0  0  0
 30 31  1  0  0  0  0
 31 22  2  0  0  0  0
 32 33  1  0  0  0  0
 32 34  1  0  0  0  0
 33 34  1  0  0  0  0
 34 35  1  0  0  0  0
 35 36  2  0  0  0  0
 37 35  1  0  0  0  0
 38 34  1  0  0  0  0
 38 24  1  0  0  0  0
M  END
> <ID>
SCHEMBL21168236

> <InChIKey>
WQBVWIKCLVNNCH-VKOYMPMHSA-N

> <MW>
548.58

> <Series_Name>
Series_14

$$$$
SCHEMBL21168239
  Mrv1719007231913312D 0   0.00000     0.00000     0

 40 43  0  0  0  0              1 V2000 
    5.5995   -1.4394    0.0000 O   0  0  0  0  0  0  0  0  0  0  0  0
    0.3862   -4.2918    0.0000 N   0  0  0  0  0  0  0  0  0  0  0  0
   13.1211   -5.1519    0.0000 N   0  0  0  0  0  0  0  0  0  0  0  0
    9.1628   -6.0033    0.0000 C   0  0  0  0  0  0  0  0  0  0  0  0
    7.6181   -6.2665    0.0000 C   0  0  0  0  0  0  0  0  0  0  0  0
    4.1601   -1.4043    0.0000 C   0  0  0  0  0  0  0  0  0  0  0  0
    3.7739   -0.7197    0.0000 C   0  0  0  0  0  0  0  0  0  0  0  0
    3.4053   -1.4218    0.0000 C   0  0  0  0  0  0  0  0  0  0  0  0
    3.4463   -3.5341    0.0000 C   0  0  0  0  0  0  0  0  0  0  0  0
    8.8176   -4.5873    0.0000 C   0  0  0  0  0  0  0  0  0  0  0  0
    9.0224   -3.7739    0.0000 C   0  0  0  0  0  0  0  0  0  0  0  0
    2.7500   -3.9904    0.0000 C   0  0  0  0  0  0  0  0  0  0  0  0
    2.6856   -4.7920    0.0000 C   0  0  0  0  0  0  0  0  0  0  0  0
    6.8282   -3.6511    0.0000 C   0  0  0  0  0  0  0  0  0  0  0  0
    6.3075   -4.2128    0.0000 C   0  0  0  0  0  0  0  0  0  0  0  0
    1.4804   -4.2479    0.0000 C   0  0  0  0  0  0  0  0  0  0  0  0
    5.4825   -4.2070    0.0000 C   0  0  0  0  0  0  0  0  0  0  0  0
    9.2974   -5.2543    0.0000 C   0  0  0  0  0  0  0  0  0  0  0  0
   12.0591   -5.4415    0.0000 C   0  0  0  0  0  0  0  0  0  0  0  0
   11.4447   -5.0027    0.0000 C   0  0  0  0  0  0  0  0  0  0  0  0
   10.7075   -5.3538    0.0000 C   0  0  0  0  0  0  0  0  0  0  0  0
    4.8886   -1.0122    0.0000 C   0  0  0  0  0  0  0  0  0  0  0  0
    4.8886   -0.1668    0.0000 O   0  0  0  0  0  0  0  0  0  0  0  0
    4.1923   -3.9671    0.0000 C   0  0  0  0  0  0  0  0  0  0  0  0
    4.1952   -4.8184    0.0000 O   0  0  0  0  0  0  0  0  0  0  0  0
    4.9062   -5.6697    0.0000 O   0  0  0  0  0  0  0  0  0  0  0  0
    7.4689   -5.0729    0.0000 O   0  0  0  0  0  0  0  0  0  0  0  0
    6.3192   -6.2665    0.0000 O   0  0  0  0  0  0  0  0  0  0  0  0
    5.4942   -5.0436    0.0000 C   0  0  0  0  0  0  0  0  0  0  0  0
    7.9780   -4.6253    0.0000 N   0  0  0  0  0  0  0  0  0  0  0  0
    9.9944   -4.8875    0.0000 N   0  0  0  0  0  0  0  0  0  0  0  0
    4.8974   -3.6160    0.0000 N   0  0  0  0  0  0  0  0  0  0  0  0
    6.8809   -5.6697    0.0000 S   0  0  0  0  0  0  0  0  0  0  0  0
    4.1777   -2.2644    0.0000 O   0  0  0  0  0  0  0  0  0  0  0  0
    2.0011   -3.6335    0.0000 N   0  0  0  0  0  0  0  0  0  0  0  0
    8.3203   -3.3000    0.0000 N   0  0  0  0  0  0  0  0  0  0  0  0
    6.3192   -5.0729    0.0000 N   0  0  0  0  0  0  0  0  0  0  0  0
    3.4756   -2.6944    0.0000 N   0  0  0  0  0  0  0  0  0  0  0  0
    1.8694   -4.9939    0.0000 S   0  0  0  0  0  0  0  0  0  0  0  0
    7.6971   -3.8354    0.0000 N   0  0  0  0  0  0  0  0  0  0  0  0
  6  7  1  0  0  0  0
  7  8  1  0  0  0  0
  6  8  1  0  0  0  0
 10 11  1  0  0  0  0
  9 12  1  0  0  0  0
 12 13  2  0  0  0  0
 14 15  1  0  0  0  0
  2 16  1  0  0  0  0
 15 17  1  0  0  0  0
 10 18  1  0  0  0  0
  4 18  1  0  0  0  0
  3 19  1  0  0  0  0
 19 20  1  0  0  0  0
 20 21  1  0  0  0  0
  1 22  1  0  0  0  0
  6 22  1  0  0  0  0
 22 23  2  0  0  0  0
  9 24  1  0  0  0  0
 24 25  2  0  0  0  0
 17 29  1  0  0  0  0
 26 29  2  0  0  0  0
 10 30  2  0  0  0  0
 18 31  1  0  0  0  0
 21 31  1  0  0  0  0
 17 32  1  0  0  0  0
 24 32  1  0  0  0  0
  5 33  1  0  0  0  0
 27 33  2  0  0  0  0
 28 33  2  0  0  0  0
  6 34  1  0  0  0  0
 12 35  1  0  0  0  0
 16 35  2  0  0  0  0
 11 36  2  0  0  0  0
 15 37  1  0  0  0  0
 29 37  1  0  0  0  0
 33 37  1  0  0  0  0
  9 38  2  0  0  0  0
 34 38  1  0  0  0  0
 13 39  1  0  0  0  0
 16 39  1  0  0  0  0
 14 40  1  0  0  0  0
 30 40  1  0  0  0  0
 36 40  1  0  0  0  0
M  END
> <ID>
SCHEMBL21168239

> <InChIKey>
RGLATRYANKXYCN-FDVSRXAVSA-N

> <MW>
598.65

> <Series_Name>
Series_14

$$$$
SCHEMBL21135550
  Mrv1719007171900532D 0   0.00000     0.00000     0

 50 53  0  0  0  0              1 V2000 
    0.2733   -1.1616    0.0000 C   0  0  0  0  0  0  0  0  0  0  0  0
    1.6853   -1.1616    0.0000 C   0  0  0  0  0  0  0  0  0  0  0  0
    7.9029   -3.3479    0.0000 C   0  0  0  0  0  0  0  0  0  0  0  0
    2.2205   -5.1585    0.0000 Cl  0  0  0  0  0  0  0  0  0  0  0  0
    5.8304   -6.4225    0.0000 C   0  0  0  0  0  0  0  0  0  0  0  0
    4.4411   -6.4225    0.0000 C   0  0  0  0  0  0  0  0  0  0  0  0
   16.8306   -6.3770    0.0000 C   0  0  0  0  0  0  0  0  0  0  0  0
    0.9793   -1.6095    0.0000 C   0  0  0  0  0  0  0  0  0  0  0  0
    0.9945   -3.3327    0.0000 C   0  0  0  0  0  0  0  0  0  0  0  0
    1.6853   -3.7959    0.0000 C   0  0  0  0  0  0  0  0  0  0  0  0
    0.3645   -3.7350    0.0000 C   0  0  0  0  0  0  0  0  0  0  0  0
    0.2961   -4.6688    0.0000 C   0  0  0  0  0  0  0  0  0  0  0  0
    0.9338   -5.1015    0.0000 C   0  0  0  0  0  0  0  0  0  0  0  0
    1.6853   -4.6688    0.0000 C   0  0  0  0  0  0  0  0  0  0  0  0
    7.2196   -3.7959    0.0000 C   0  0  0  0  0  0  0  0  0  0  0  0
    6.5820   -3.3935    0.0000 C   0  0  0  0  0  0  0  0  0  0  0  0
    5.8304   -4.6764    0.0000 C   0  0  0  0  0  0  0  0  0  0  0  0
    3.0594   -3.7959    0.0000 C   0  0  0  0  0  0  0  0  0  0  0  0
    3.0746   -4.6764    0.0000 C   0  0  0  0  0  0  0  0  0  0  0  0
    7.2196   -4.6764    0.0000 C   0  0  0  0  0  0  0  0  0  0  0  0
    3.7122   -5.1015    0.0000 C   0  0  0  0  0  0  0  0  0  0  0  0
    6.5592   -5.1015    0.0000 C   0  0  0  0  0  0  0  0  0  0  0  0
    7.9029   -5.1167    0.0000 C   0  0  0  0  0  0  0  0  0  0  0  0
    9.2922   -5.1243    0.0000 C   0  0  0  0  0  0  0  0  0  0  0  0
    8.6317   -4.6916    0.0000 C   0  0  0  0  0  0  0  0  0  0  0  0
    7.9484   -6.0126    0.0000 C   0  0  0  0  0  0  0  0  0  0  0  0
    8.5861   -6.4225    0.0000 C   0  0  0  0  0  0  0  0  0  0  0  0
    5.1395   -5.9746    0.0000 C   0  0  0  0  0  0  0  0  0  0  0  0
   10.6587   -5.9898    0.0000 C   0  0  0  0  0  0  0  0  0  0  0  0
   12.7311   -6.4225    0.0000 C   0  0  0  0  0  0  0  0  0  0  0  0
   12.0707   -5.9898    0.0000 C   0  0  0  0  0  0  0  0  0  0  0  0
   14.8491   -5.9898    0.0000 C   0  0  0  0  0  0  0  0  0  0  0  0
   14.1659   -6.4225    0.0000 C   0  0  0  0  0  0  0  0  0  0  0  0
   16.2156   -5.9898    0.0000 C   0  0  0  0  0  0  0  0  0  0  0  0
    9.9753   -6.4225    0.0000 C   0  0  0  0  0  0  0  0  0  0  0  0
    9.9981   -7.3335    0.0000 O   0  0  0  0  0  0  0  0  0  0  0  0
    1.7878   -2.4938    0.0000 O   0  0  0  0  0  0  0  0  0  0  0  0
    0.1936   -2.4938    0.0000 O   0  0  0  0  0  0  0  0  0  0  0  0
    4.4184   -3.8072    0.0000 C   0  0  0  0  0  0  0  0  0  0  0  0
    5.8418   -3.7578    0.0000 C   0  0  0  0  0  0  0  0  0  0  0  0
    9.3035   -6.0239    0.0000 N   0  0  0  0  0  0  0  0  0  0  0  0
    4.4525   -4.7030    0.0000 N   0  0  0  0  0  0  0  0  0  0  0  0
    5.1357   -3.3820    0.0000 N   0  0  0  0  0  0  0  0  0  0  0  0
    3.7693   -3.3820    0.0000 N   0  0  0  0  0  0  0  0  0  0  0  0
    2.3686   -3.3820    0.0000 N   0  0  0  0  0  0  0  0  0  0  0  0
   15.5438   -6.4681    0.0000 O   0  0  0  0  0  0  0  0  0  0  0  0
   11.3760   -6.4681    0.0000 O   0  0  0  0  0  0  0  0  0  0  0  0
   13.4599   -6.0353    0.0000 O   0  0  0  0  0  0  0  0  0  0  0  0
    5.1471   -5.1585    0.0000 O   0  0  0  0  0  0  0  0  0  0  0  0
    1.0021   -2.4938    0.0000 S   0  0  0  0  0  0  0  0  0  0  0  0
  1  8  1  0  0  0  0
  2  8  1  0  0  0  0
  9 10  2  0  0  0  0
  9 11  1  0  0  0  0
 11 12  2  0  0  0  0
 12 13  1  0  0  0  0
 13 14  2  0  0  0  0
 10 14  1  0  0  0  0
  3 15  1  0  0  0  0
 15 16  2  0  0  0  0
 18 19  1  0  0  0  0
  4 19  1  0  0  0  0
 15 20  1  0  0  0  0
 19 21  2  0  0  0  0
 20 22  2  0  0  0  0
 17 22  1  0  0  0  0
 20 23  1  0  0  0  0
 24 25  1  0  0  0  0
 23 25  1  0  0  0  0
 23 26  1  0  0  0  0
 26 27  1  0  0  0  0
  5 28  1  0  0  0  0
  6 28  1  0  0  0  0
 30 31  1  0  0  0  0
 32 33  1  0  0  0  0
  7 34  1  0  0  0  0
 29 35  1  0  0  0  0
 35 36  2  0  0  0  0
 16 40  1  0  0  0  0
 17 40  2  0  0  0  0
 24 41  1  0  0  0  0
 27 41  1  0  0  0  0
 35 41  1  0  0  0  0
 21 42  1  0  0  0  0
 39 42  2  0  0  0  0
 39 43  1  0  0  0  0
 40 43  1  0  0  0  0
 18 44  2  0  0  0  0
 39 44  1  0  0  0  0
 10 45  1  0  0  0  0
 18 45  1  0  0  0  0
 32 46  1  0  0  0  0
 34 46  1  0  0  0  0
 29 47  1  0  0  0  0
 31 47  1  0  0  0  0
 30 48  1  0  0  0  0
 33 48  1  0  0  0  0
 17 49  1  0  0  0  0
 28 49  1  0  0  0  0
  8 50  1  0  0  0  0
  9 50  1  0  0  0  0
 37 50  2  0  0  0  0
 38 50  2  0  0  0  0
M  END
> <ID>
SCHEMBL21135550

> <InChIKey>
WXQMCOUNMDSBSS-UHFFFAOYSA-N

> <MW>
732.33

> <Series_Name>
Series_7

$$$$
SCHEMBL21135555
  Mrv1719007171900542D 0   0.00000     0.00000     0

 50 53  0  0  0  0              1 V2000 
    0.2881   -1.1768    0.0000 C   0  0  0  0  0  0  0  0  0  0  0  0
    1.6812   -1.1768    0.0000 C   0  0  0  0  0  0  0  0  0  0  0  0
    7.9495   -3.3623    0.0000 C   0  0  0  0  0  0  0  0  0  0  0  0
    2.2335   -5.1516    0.0000 Cl  0  0  0  0  0  0  0  0  0  0  0  0
   10.7715   -5.1396    0.0000 O   0  0  0  0  0  0  0  0  0  0  0  0
    5.8601   -6.3884    0.0000 C   0  0  0  0  0  0  0  0  0  0  0  0
    4.4430   -6.4124    0.0000 C   0  0  0  0  0  0  0  0  0  0  0  0
   17.0518   -7.3011    0.0000 O   0  0  0  0  0  0  0  0  0  0  0  0
    0.9847   -1.6011    0.0000 C   0  0  0  0  0  0  0  0  0  0  0  0
    0.9687   -3.3464    0.0000 C   0  0  0  0  0  0  0  0  0  0  0  0
    1.6892   -3.7866    0.0000 C   0  0  0  0  0  0  0  0  0  0  0  0
    1.7052   -4.6593    0.0000 C   0  0  0  0  0  0  0  0  0  0  0  0
    1.0087   -5.0915    0.0000 C   0  0  0  0  0  0  0  0  0  0  0  0
    0.2881   -4.6593    0.0000 C   0  0  0  0  0  0  0  0  0  0  0  0
    0.2881   -3.7946    0.0000 C   0  0  0  0  0  0  0  0  0  0  0  0
    7.2610   -3.7866    0.0000 C   0  0  0  0  0  0  0  0  0  0  0  0
    6.5806   -3.3623    0.0000 C   0  0  0  0  0  0  0  0  0  0  0  0
    5.8680   -3.7866    0.0000 C   0  0  0  0  0  0  0  0  0  0  0  0
    5.8842   -4.6673    0.0000 C   0  0  0  0  0  0  0  0  0  0  0  0
    7.2771   -4.6673    0.0000 C   0  0  0  0  0  0  0  0  0  0  0  0
    3.0662   -3.8026    0.0000 C   0  0  0  0  0  0  0  0  0  0  0  0
    3.0741   -4.6432    0.0000 C   0  0  0  0  0  0  0  0  0  0  0  0
    3.7466   -5.0915    0.0000 C   0  0  0  0  0  0  0  0  0  0  0  0
    9.3665   -5.1156    0.0000 C   0  0  0  0  0  0  0  0  0  0  0  0
    8.6460   -4.6593    0.0000 C   0  0  0  0  0  0  0  0  0  0  0  0
    7.9736   -5.1076    0.0000 C   0  0  0  0  0  0  0  0  0  0  0  0
    6.6046   -5.0915    0.0000 C   0  0  0  0  0  0  0  0  0  0  0  0
    7.9975   -6.0042    0.0000 C   0  0  0  0  0  0  0  0  0  0  0  0
    8.6460   -6.4124    0.0000 C   0  0  0  0  0  0  0  0  0  0  0  0
    5.1636   -5.9642    0.0000 C   0  0  0  0  0  0  0  0  0  0  0  0
   10.7995   -5.9721    0.0000 C   0  0  0  0  0  0  0  0  0  0  0  0
   10.0630   -6.4124    0.0000 C   0  0  0  0  0  0  0  0  0  0  0  0
   12.8250   -6.3884    0.0000 C   0  0  0  0  0  0  0  0  0  0  0  0
   12.1285   -5.9801    0.0000 C   0  0  0  0  0  0  0  0  0  0  0  0
   14.9624   -5.9801    0.0000 C   0  0  0  0  0  0  0  0  0  0  0  0
   14.2420   -6.4124    0.0000 C   0  0  0  0  0  0  0  0  0  0  0  0
   16.9798   -6.3884    0.0000 C   0  0  0  0  0  0  0  0  0  0  0  0
   16.3554   -5.9801    0.0000 C   0  0  0  0  0  0  0  0  0  0  0  0
    1.8013   -2.4977    0.0000 O   0  0  0  0  0  0  0  0  0  0  0  0
    4.4430   -3.7946    0.0000 C   0  0  0  0  0  0  0  0  0  0  0  0
    0.9726   -2.4977    0.0000 S   0  0  0  0  0  0  0  0  0  0  0  0
    5.1756   -3.3864    0.0000 N   0  0  0  0  0  0  0  0  0  0  0  0
    3.7706   -3.3864    0.0000 N   0  0  0  0  0  0  0  0  0  0  0  0
    2.3777   -3.3864    0.0000 N   0  0  0  0  0  0  0  0  0  0  0  0
   11.4560   -6.4365    0.0000 N   0  0  0  0  0  0  0  0  0  0  0  0
   15.6469   -6.4365    0.0000 O   0  0  0  0  0  0  0  0  0  0  0  0
   13.5455   -6.0042    0.0000 O   0  0  0  0  0  0  0  0  0  0  0  0
    9.3546   -6.0042    0.0000 N   0  0  0  0  0  0  0  0  0  0  0  0
    5.1876   -5.1396    0.0000 O   0  0  0  0  0  0  0  0  0  0  0  0
    4.4791   -4.6953    0.0000 N   0  0  0  0  0  0  0  0  0  0  0  0
  1  9  1  0  0  0  0
  2  9  1  0  0  0  0
 10 11  2  0  0  0  0
 11 12  1  0  0  0  0
 12 13  2  0  0  0  0
 13 14  1  0  0  0  0
 14 15  2  0  0  0  0
 10 15  1  0  0  0  0
  3 16  1  0  0  0  0
 16 17  2  0  0  0  0
 17 18  1  0  0  0  0
 18 19  2  0  0  0  0
 16 20  1  0  0  0  0
 21 22  1  0  0  0  0
  4 22  1  0  0  0  0
 22 23  2  0  0  0  0
 24 25  1  0  0  0  0
 25 26  1  0  0  0  0
 20 26  1  0  0  0  0
 20 27  2  0  0  0  0
 19 27  1  0  0  0  0
 26 28  1  0  0  0  0
 28 29  1  0  0  0  0
  6 30  1  0  0  0  0
  7 30  1  0  0  0  0
  5 31  2  0  0  0  0
 31 32  1  0  0  0  0
 33 34  1  0  0  0  0
 35 36  1  0  0  0  0
  8 37  2  0  0  0  0
 37 38  1  0  0  0  0
  9 41  1  0  0  0  0
 10 41  1  0  0  0  0
 39 41  2  0  0  0  0
 18 42  1  0  0  0  0
 40 42  1  0  0  0  0
 21 43  2  0  0  0  0
 40 43  1  0  0  0  0
 11 44  1  0  0  0  0
 21 44  1  0  0  0  0
 31 45  1  0  0  0  0
 34 45  1  0  0  0  0
 35 46  1  0  0  0  0
 38 46  1  0  0  0  0
 33 47  1  0  0  0  0
 36 47  1  0  0  0  0
 24 48  1  0  0  0  0
 29 48  1  0  0  0  0
 32 48  1  0  0  0  0
 19 49  1  0  0  0  0
 30 49  1  0  0  0  0
 23 50  1  0  0  0  0
 40 50  2  0  0  0  0
M  END
> <ID>
SCHEMBL21135555

> <InChIKey>
NFVSAQNAIVKHKO-UHFFFAOYSA-N

> <MW>
729.33

> <Series_Name>
Series_7

$$$$
SCHEMBL21135614
  Mrv1719007171901122D 0   0.00000     0.00000     0

 53 56  0  0  0  0              1 V2000 
    0.2830   -1.1722    0.0000 C   0  0  0  0  0  0  0  0  0  0  0  0
    1.6776   -1.1722    0.0000 C   0  0  0  0  0  0  0  0  0  0  0  0
    7.9834   -3.3955    0.0000 C   0  0  0  0  0  0  0  0  0  0  0  0
    2.2333   -5.1842    0.0000 C   0  0  0  0  0  0  0  0  0  0  0  0
    5.8815   -6.4676    0.0000 C   0  0  0  0  0  0  0  0  0  0  0  0
    4.4667   -6.4676    0.0000 C   0  0  0  0  0  0  0  0  0  0  0  0
   18.1496   -6.1442    0.0000 C   0  0  0  0  0  0  0  0  0  0  0  0
    0.9904   -1.6304    0.0000 C   0  0  0  0  0  0  0  0  0  0  0  0
    0.9904   -3.3820    0.0000 C   0  0  0  0  0  0  0  0  0  0  0  0
    0.2830   -3.8402    0.0000 C   0  0  0  0  0  0  0  0  0  0  0  0
    0.2830   -4.6890    0.0000 C   0  0  0  0  0  0  0  0  0  0  0  0
    0.9701   -5.1336    0.0000 C   0  0  0  0  0  0  0  0  0  0  0  0
    1.6776   -4.7092    0.0000 C   0  0  0  0  0  0  0  0  0  0  0  0
    1.6708   -3.8266    0.0000 C   0  0  0  0  0  0  0  0  0  0  0  0
    7.2693   -3.8266    0.0000 C   0  0  0  0  0  0  0  0  0  0  0  0
    6.6090   -3.3955    0.0000 C   0  0  0  0  0  0  0  0  0  0  0  0
    5.8949   -4.6957    0.0000 C   0  0  0  0  0  0  0  0  0  0  0  0
    7.2895   -4.6957    0.0000 C   0  0  0  0  0  0  0  0  0  0  0  0
    3.0923   -3.8132    0.0000 C   0  0  0  0  0  0  0  0  0  0  0  0
    4.4801   -3.8266    0.0000 C   0  0  0  0  0  0  0  0  0  0  0  0
    3.0923   -4.7160    0.0000 C   0  0  0  0  0  0  0  0  0  0  0  0
    7.9834   -5.1471    0.0000 C   0  0  0  0  0  0  0  0  0  0  0  0
    6.6090   -5.1336    0.0000 C   0  0  0  0  0  0  0  0  0  0  0  0
    3.7593   -5.1336    0.0000 C   0  0  0  0  0  0  0  0  0  0  0  0
    9.3780   -5.1539    0.0000 C   0  0  0  0  0  0  0  0  0  0  0  0
    8.7312   -4.7294    0.0000 C   0  0  0  0  0  0  0  0  0  0  0  0
    8.0238   -6.0634    0.0000 C   0  0  0  0  0  0  0  0  0  0  0  0
    8.6706   -6.4676    0.0000 C   0  0  0  0  0  0  0  0  0  0  0  0
    5.2010   -6.0297    0.0000 C   0  0  0  0  0  0  0  0  0  0  0  0
   16.4317   -6.0431    0.0000 C   0  0  0  0  0  0  0  0  0  0  0  0
   15.7243   -6.4676    0.0000 C   0  0  0  0  0  0  0  0  0  0  0  0
   15.0169   -6.0431    0.0000 C   0  0  0  0  0  0  0  0  0  0  0  0
   14.3297   -6.4676    0.0000 C   0  0  0  0  0  0  0  0  0  0  0  0
   13.6223   -6.0431    0.0000 C   0  0  0  0  0  0  0  0  0  0  0  0
   12.9150   -6.4676    0.0000 C   0  0  0  0  0  0  0  0  0  0  0  0
   12.2075   -6.0431    0.0000 C   0  0  0  0  0  0  0  0  0  0  0  0
   11.5002   -6.4676    0.0000 C   0  0  0  0  0  0  0  0  0  0  0  0
   10.8130   -6.0431    0.0000 C   0  0  0  0  0  0  0  0  0  0  0  0
   17.0885   -7.3771    0.0000 O   0  0  0  0  0  0  0  0  0  0  0  0
   10.0853   -6.4676    0.0000 C   0  0  0  0  0  0  0  0  0  0  0  0
   10.0955   -7.3771    0.0000 O   0  0  0  0  0  0  0  0  0  0  0  0
    0.1920   -2.5264    0.0000 O   0  0  0  0  0  0  0  0  0  0  0  0
    1.7988   -2.5264    0.0000 O   0  0  0  0  0  0  0  0  0  0  0  0
    5.9219   -3.7795    0.0000 C   0  0  0  0  0  0  0  0  0  0  0  0
   17.0986   -6.4574    0.0000 C   0  0  0  0  0  0  0  0  0  0  0  0
    9.3982   -6.0532    0.0000 N   0  0  0  0  0  0  0  0  0  0  0  0
   17.7858   -6.0532    0.0000 N   0  0  0  0  0  0  0  0  0  0  0  0
    5.1943   -3.4157    0.0000 N   0  0  0  0  0  0  0  0  0  0  0  0
    3.7997   -3.4157    0.0000 N   0  0  0  0  0  0  0  0  0  0  0  0
    4.5071   -4.7294    0.0000 N   0  0  0  0  0  0  0  0  0  0  0  0
    2.3950   -3.4157    0.0000 N   0  0  0  0  0  0  0  0  0  0  0  0
    5.2043   -5.1740    0.0000 O   0  0  0  0  0  0  0  0  0  0  0  0
    0.9802   -2.5264    0.0000 S   0  0  0  0  0  0  0  0  0  0  0  0
  1  8  1  0  0  0  0
  2  8  1  0  0  0  0
  9 10  1  0  0  0  0
 10 11  2  0  0  0  0
 11 12  1  0  0  0  0
 12 13  2  0  0  0  0
 13 14  1  0  0  0  0
  9 14  2  0  0  0  0
  3 15  1  0  0  0  0
 15 16  2  0  0  0  0
 15 18  1  0  0  0  0
 19 21  1  0  0  0  0
  4 21  1  0  0  0  0
 18 22  1  0  0  0  0
 18 23  2  0  0  0  0
 17 23  1  0  0  0  0
 21 24  2  0  0  0  0
 25 26  1  0  0  0  0
 22 26  1  0  0  0  0
 22 27  1  0  0  0  0
 27 28  1  0  0  0  0
  5 29  1  0  0  0  0
  6 29  1  0  0  0  0
 30 31  1  0  0  0  0
 31 32  1  0  0  0  0
 32 33  1  0  0  0  0
 33 34  1  0  0  0  0
 34 35  1  0  0  0  0
 35 36  1  0  0  0  0
 36 37  1  0  0  0  0
 37 38  1  0  0  0  0
 38 40  1  0  0  0  0
 40 41  2  0  0  0  0
 16 44  1  0  0  0  0
 17 44  2  0  0  0  0
 30 45  1  0  0  0  0
 39 45  2  0  0  0  0
 25 46  1  0  0  0  0
 28 46  1  0  0  0  0
 40 46  1  0  0  0  0
  7 47  1  0  0  0  0
 45 47  1  0  0  0  0
 20 48  1  0  0  0  0
 44 48  1  0  0  0  0
 19 49  2  0  0  0  0
 20 49  1  0  0  0  0
 20 50  2  0  0  0  0
 24 50  1  0  0  0  0
 14 51  1  0  0  0  0
 19 51  1  0  0  0  0
 17 52  1  0  0  0  0
 29 52  1  0  0  0  0
  8 53  1  0  0  0  0
  9 53  1  0  0  0  0
 42 53  2  0  0  0  0
 43 53  2  0  0  0  0
M  END
> <ID>
SCHEMBL21135614

> <InChIKey>
SRSOHPCQOVPYMD-UHFFFAOYSA-N

> <MW>
749.03

> <Series_Name>
Series_7

$$$$
SCHEMBL21136311
  Mrv1719007171902482D 0   0.00000     0.00000     0

 48 51  0  0  0  0              1 V2000 
    0.3450   -1.2419    0.0000 C   0  0  0  0  0  0  0  0  0  0  0  0
    1.6559   -1.2419    0.0000 C   0  0  0  0  0  0  0  0  0  0  0  0
    8.0724   -3.4268    0.0000 C   0  0  0  0  0  0  0  0  0  0  0  0
    2.2768   -5.2206    0.0000 Cl  0  0  0  0  0  0  0  0  0  0  0  0
    4.5767   -6.5086    0.0000 C   0  0  0  0  0  0  0  0  0  0  0  0
    5.9336   -6.5086    0.0000 C   0  0  0  0  0  0  0  0  0  0  0  0
   15.1445   -6.1175    0.0000 N   0  0  0  0  0  0  0  0  0  0  0  0
    0.9889   -1.6482    0.0000 C   0  0  0  0  0  0  0  0  0  0  0  0
    0.9889   -3.4115    0.0000 C   0  0  0  0  0  0  0  0  0  0  0  0
    0.2990   -3.8637    0.0000 C   0  0  0  0  0  0  0  0  0  0  0  0
    0.2990   -4.7377    0.0000 C   0  0  0  0  0  0  0  0  0  0  0  0
    0.9659   -5.1976    0.0000 C   0  0  0  0  0  0  0  0  0  0  0  0
    1.7249   -4.7377    0.0000 C   0  0  0  0  0  0  0  0  0  0  0  0
    1.7249   -3.8560    0.0000 C   0  0  0  0  0  0  0  0  0  0  0  0
    7.3824   -3.8560    0.0000 C   0  0  0  0  0  0  0  0  0  0  0  0
    6.6926   -3.4268    0.0000 C   0  0  0  0  0  0  0  0  0  0  0  0
    5.9336   -3.8560    0.0000 C   0  0  0  0  0  0  0  0  0  0  0  0
    3.1201   -3.8714    0.0000 C   0  0  0  0  0  0  0  0  0  0  0  0
    3.1277   -4.7453    0.0000 C   0  0  0  0  0  0  0  0  0  0  0  0
    5.9336   -4.7453    0.0000 C   0  0  0  0  0  0  0  0  0  0  0  0
    7.3671   -4.7453    0.0000 C   0  0  0  0  0  0  0  0  0  0  0  0
    3.8177   -5.1976    0.0000 C   0  0  0  0  0  0  0  0  0  0  0  0
    8.0648   -5.2053    0.0000 C   0  0  0  0  0  0  0  0  0  0  0  0
    6.6236   -5.1976    0.0000 C   0  0  0  0  0  0  0  0  0  0  0  0
    9.4984   -5.2206    0.0000 C   0  0  0  0  0  0  0  0  0  0  0  0
    8.8084   -4.7606    0.0000 C   0  0  0  0  0  0  0  0  0  0  0  0
    8.0724   -6.0716    0.0000 C   0  0  0  0  0  0  0  0  0  0  0  0
    8.7394   -6.5086    0.0000 C   0  0  0  0  0  0  0  0  0  0  0  0
    5.2437   -6.0792    0.0000 C   0  0  0  0  0  0  0  0  0  0  0  0
   11.5683   -6.5086    0.0000 C   0  0  0  0  0  0  0  0  0  0  0  0
   10.8783   -6.0946    0.0000 C   0  0  0  0  0  0  0  0  0  0  0  0
   13.7531   -6.0946    0.0000 C   0  0  0  0  0  0  0  0  0  0  0  0
   13.0631   -6.5086    0.0000 C   0  0  0  0  0  0  0  0  0  0  0  0
   14.4430   -6.5086    0.0000 C   0  0  0  0  0  0  0  0  0  0  0  0
   14.4430   -7.4515    0.0000 O   0  0  0  0  0  0  0  0  0  0  0  0
   10.1883   -6.5086    0.0000 C   0  0  0  0  0  0  0  0  0  0  0  0
   10.1883   -7.4515    0.0000 O   0  0  0  0  0  0  0  0  0  0  0  0
    1.8284   -2.5528    0.0000 O   0  0  0  0  0  0  0  0  0  0  0  0
    0.1955   -2.5528    0.0000 O   0  0  0  0  0  0  0  0  0  0  0  0
    4.5192   -3.8637    0.0000 C   0  0  0  0  0  0  0  0  0  0  0  0
    5.2551   -3.4613    0.0000 N   0  0  0  0  0  0  0  0  0  0  0  0
    3.8293   -3.4613    0.0000 N   0  0  0  0  0  0  0  0  0  0  0  0
    2.4148   -3.4613    0.0000 N   0  0  0  0  0  0  0  0  0  0  0  0
    4.5422   -4.7722    0.0000 N   0  0  0  0  0  0  0  0  0  0  0  0
    1.0120   -2.5528    0.0000 S   0  0  0  0  0  0  0  0  0  0  0  0
    5.2437   -5.2206    0.0000 O   0  0  0  0  0  0  0  0  0  0  0  0
    9.4868   -6.1175    0.0000 N   0  0  0  0  0  0  0  0  0  0  0  0
   12.3157   -6.1061    0.0000 O   0  0  0  0  0  0  0  0  0  0  0  0
  1  8  1  0  0  0  0
  2  8  1  0  0  0  0
  9 10  1  0  0  0  0
 10 11  2  0  0  0  0
 11 12  1  0  0  0  0
 12 13  2  0  0  0  0
 13 14  1  0  0  0  0
  9 14  2  0  0  0  0
  3 15  1  0  0  0  0
 15 16  2  0  0  0  0
 16 17  1  0  0  0  0
 18 19  1  0  0  0  0
  4 19  1  0  0  0  0
 17 20  2  0  0  0  0
 15 21  1  0  0  0  0
 19 22  2  0  0  0  0
 21 23  1  0  0  0  0
 21 24  2  0  0  0  0
 20 24  1  0  0  0  0
 25 26  1  0  0  0  0
 23 26  1  0  0  0  0
 23 27  1  0  0  0  0
 27 28  1  0  0  0  0
  5 29  1  0  0  0  0
  6 29  1  0  0  0  0
 30 31  1  0  0  0  0
 32 33  1  0  0  0  0
 32 34  1  0  0  0  0
  7 34  1  0  0  0  0
 34 35  2  0  0  0  0
 31 36  1  0  0  0  0
 36 37  2  0  0  0  0
 17 41  1  0  0  0  0
 40 41  1  0  0  0  0
 18 42  2  0  0  0  0
 40 42  1  0  0  0  0
 14 43  1  0  0  0  0
 18 43  1  0  0  0  0
 22 44  1  0  0  0  0
 40 44  2  0  0  0  0
  8 45  1  0  0  0  0
  9 45  1  0  0  0  0
 38 45  2  0  0  0  0
 39 45  2  0  0  0  0
 20 46  1  0  0  0  0
 29 46  1  0  0  0  0
 25 47  1  0  0  0  0
 28 47  1  0  0  0  0
 36 47  1  0  0  0  0
 30 48  1  0  0  0  0
 33 48  1  0  0  0  0
M  END
> <ID>
SCHEMBL21136311

> <InChIKey>
LOWMMIDSAFLEIN-UHFFFAOYSA-N

> <MW>
701.28

> <Series_Name>
Series_7

$$$$
SCHEMBL21136688
  Mrv1719007171904142D 0   0.00000     0.00000     0

 47 50  0  0  0  0              1 V2000 
    0.2716   -1.1910    0.0000 C   0  0  0  0  0  0  0  0  0  0  0  0
    1.6925   -1.1910    0.0000 C   0  0  0  0  0  0  0  0  0  0  0  0
    7.9196   -3.3643    0.0000 C   0  0  0  0  0  0  0  0  0  0  0  0
    2.2150   -5.1509    0.0000 Cl  0  0  0  0  0  0  0  0  0  0  0  0
    4.4718   -6.4361    0.0000 C   0  0  0  0  0  0  0  0  0  0  0  0
    5.8300   -6.4152    0.0000 C   0  0  0  0  0  0  0  0  0  0  0  0
   13.7915   -6.1226    0.0000 C   0  0  0  0  0  0  0  0  0  0  0  0
    0.9751   -1.6160    0.0000 C   0  0  0  0  0  0  0  0  0  0  0  0
    0.9821   -3.3504    0.0000 C   0  0  0  0  0  0  0  0  0  0  0  0
    1.6648   -3.8101    0.0000 C   0  0  0  0  0  0  0  0  0  0  0  0
    1.6717   -4.6808    0.0000 C   0  0  0  0  0  0  0  0  0  0  0  0
    1.0031   -5.1196    0.0000 C   0  0  0  0  0  0  0  0  0  0  0  0
    0.2926   -4.6599    0.0000 C   0  0  0  0  0  0  0  0  0  0  0  0
    0.2926   -3.8240    0.0000 C   0  0  0  0  0  0  0  0  0  0  0  0
    7.2301   -3.7962    0.0000 C   0  0  0  0  0  0  0  0  0  0  0  0
    6.5614   -3.3643    0.0000 C   0  0  0  0  0  0  0  0  0  0  0  0
    5.8510   -3.7962    0.0000 C   0  0  0  0  0  0  0  0  0  0  0  0
    3.0717   -3.7962    0.0000 C   0  0  0  0  0  0  0  0  0  0  0  0
    4.4718   -3.7962    0.0000 C   0  0  0  0  0  0  0  0  0  0  0  0
    3.0717   -4.6877    0.0000 C   0  0  0  0  0  0  0  0  0  0  0  0
    5.8510   -4.6877    0.0000 C   0  0  0  0  0  0  0  0  0  0  0  0
    7.2301   -4.6877    0.0000 C   0  0  0  0  0  0  0  0  0  0  0  0
    9.2988   -5.1196    0.0000 C   0  0  0  0  0  0  0  0  0  0  0  0
    8.6093   -4.6808    0.0000 C   0  0  0  0  0  0  0  0  0  0  0  0
    7.9127   -5.1265    0.0000 C   0  0  0  0  0  0  0  0  0  0  0  0
    7.9406   -5.9972    0.0000 C   0  0  0  0  0  0  0  0  0  0  0  0
    8.6093   -6.4361    0.0000 C   0  0  0  0  0  0  0  0  0  0  0  0
    3.7404   -5.0987    0.0000 C   0  0  0  0  0  0  0  0  0  0  0  0
    6.5614   -5.1196    0.0000 C   0  0  0  0  0  0  0  0  0  0  0  0
    5.1614   -5.9833    0.0000 C   0  0  0  0  0  0  0  0  0  0  0  0
   10.6571   -5.9972    0.0000 C   0  0  0  0  0  0  0  0  0  0  0  0
   12.0989   -5.9972    0.0000 C   0  0  0  0  0  0  0  0  0  0  0  0
   12.7676   -7.3346    0.0000 O   0  0  0  0  0  0  0  0  0  0  0  0
    9.9989   -7.3346    0.0000 O   0  0  0  0  0  0  0  0  0  0  0  0
    1.7866   -2.5180    0.0000 O   0  0  0  0  0  0  0  0  0  0  0  0
    0.1880   -2.5180    0.0000 O   0  0  0  0  0  0  0  0  0  0  0  0
    9.9989   -6.4221    0.0000 C   0  0  0  0  0  0  0  0  0  0  0  0
   12.7572   -6.4291    0.0000 C   0  0  0  0  0  0  0  0  0  0  0  0
    0.9821   -2.5180    0.0000 S   0  0  0  0  0  0  0  0  0  0  0  0
   11.3780   -6.4465    0.0000 O   0  0  0  0  0  0  0  0  0  0  0  0
    2.3660   -3.3627    0.0000 N   0  0  0  0  0  0  0  0  0  0  0  0
    5.1306   -3.3917    0.0000 N   0  0  0  0  0  0  0  0  0  0  0  0
   13.9887   -5.7282    0.0000 N   0  0  0  0  0  0  0  0  0  0  0  0
    9.2988   -6.0286    0.0000 N   0  0  0  0  0  0  0  0  0  0  0  0
    4.4614   -4.7122    0.0000 N   0  0  0  0  0  0  0  0  0  0  0  0
    3.7718   -3.3852    0.0000 N   0  0  0  0  0  0  0  0  0  0  0  0
    5.1405   -5.1405    0.0000 O   0  0  0  0  0  0  0  0  0  0  0  0
  1  8  1  0  0  0  0
  2  8  1  0  0  0  0
  9 10  2  0  0  0  0
 10 11  1  0  0  0  0
 11 12  2  0  0  0  0
 12 13  1  0  0  0  0
 13 14  2  0  0  0  0
  9 14  1  0  0  0  0
  3 15  1  0  0  0  0
 15 16  2  0  0  0  0
 16 17  1  0  0  0  0
 18 20  1  0  0  0  0
  4 20  1  0  0  0  0
 17 21  2  0  0  0  0
 15 22  1  0  0  0  0
 23 24  1  0  0  0  0
 24 25  1  0  0  0  0
 22 25  1  0  0  0  0
 25 26  1  0  0  0  0
 26 27  1  0  0  0  0
 20 28  2  0  0  0  0
 22 29  2  0  0  0  0
 21 29  1  0  0  0  0
  5 30  1  0  0  0  0
  6 30  1  0  0  0  0
 31 37  1  0  0  0  0
 34 37  2  0  0  0  0
 32 38  1  0  0  0  0
 33 38  2  0  0  0  0
  8 39  1  0  0  0  0
  9 39  1  0  0  0  0
 35 39  2  0  0  0  0
 36 39  2  0  0  0  0
 31 40  1  0  0  0  0
 32 40  1  0  0  0  0
 10 41  1  0  0  0  0
 18 41  1  0  0  0  0
 17 42  1  0  0  0  0
 19 42  1  0  0  0  0
  7 43  1  0  0  0  0
 38 43  1  0  0  0  0
 23 44  1  0  0  0  0
 27 44  1  0  0  0  0
 37 44  1  0  0  0  0
 19 45  2  0  0  0  0
 28 45  1  0  0  0  0
 18 46  2  0  0  0  0
 19 46  1  0  0  0  0
 21 47  1  0  0  0  0
 30 47  1  0  0  0  0
M  END
> <ID>
SCHEMBL21136688

> <InChIKey>
VTPYNAQKYAYFPN-UHFFFAOYSA-N

> <MW>
687.25

> <Series_Name>
Series_7

$$$$
SCHEMBL21137991
  Mrv1719007171910242D 0   0.00000     0.00000     0

 33 36  0  0  0  0              1 V2000 
    7.7036   -3.6093    0.0000 C   0  0  0  0  0  0  0  0  0  0  0  0
    8.4146   -4.0161    0.0000 C   0  0  0  0  0  0  0  0  0  0  0  0
    7.7008   -2.7707    0.0000 C   0  0  0  0  0  0  0  0  0  0  0  0
    6.9728   -2.3827    0.0000 C   0  0  0  0  0  0  0  0  0  0  0  0
    6.2250   -2.7621    0.0000 C   0  0  0  0  0  0  0  0  0  0  0  0
    5.5496   -2.3724    0.0000 C   0  0  0  0  0  0  0  0  0  0  0  0
    5.5311   -1.5148    0.0000 N   0  0  0  0  0  0  0  0  0  0  0  0
    6.2834   -1.1292    0.0000 C   0  0  0  0  0  0  0  0  0  0  0  0
    6.9816   -1.5242    0.0000 C   0  0  0  0  0  0  0  0  0  0  0  0
    8.4135   -2.3619    0.0000 C   0  0  0  0  0  0  0  0  0  0  0  0
    8.4165   -1.5245    0.0000 C   0  0  0  0  0  0  0  0  0  0  0  0
    9.1680   -1.1257    0.0000 C   0  0  0  0  0  0  0  0  0  0  0  0
    9.8575   -1.5254    0.0000 C   0  0  0  0  0  0  0  0  0  0  0  0
    9.1516   -2.7586    0.0000 C   0  0  0  0  0  0  0  0  0  0  0  0
    9.8538   -2.3496    0.0000 C   0  0  0  0  0  0  0  0  0  0  0  0
    9.1305   -3.5855    0.0000 N   0  0  0  0  0  0  0  0  0  0  0  0
    8.5383   -4.5563    0.0000 C   0  0  0  0  0  0  0  0  0  0  0  0
    8.9155   -4.9624    0.0000 F   0  0  0  0  0  0  0  0  0  0  0  0
    9.0785   -4.4326    0.0000 F   0  0  0  0  0  0  0  0  0  0  0  0
    8.1323   -4.9337    0.0000 F   0  0  0  0  0  0  0  0  0  0  0  0
    0.3779   -2.7586    0.0000 Cl  0  0  0  0  0  0  0  0  0  0  0  0
    1.2245   -2.3782    0.0000 C   0  0  0  0  0  0  0  0  0  0  0  0
    1.2414   -1.5189    0.0000 C   0  0  0  0  0  0  0  0  0  0  0  0
    1.9337   -1.1312    0.0000 C   0  0  0  0  0  0  0  0  0  0  0  0
    1.9456   -0.2640    0.0000 F   0  0  0  0  0  0  0  0  0  0  0  0
    2.6768   -1.5275    0.0000 C   0  0  0  0  0  0  0  0  0  0  0  0
    3.3770   -0.8547    0.0000 N   0  0  0  0  0  0  0  0  0  0  0  0
    2.6735   -2.3668    0.0000 C   0  0  0  0  0  0  0  0  0  0  0  0
    1.9108   -2.7606    0.0000 C   0  0  0  0  0  0  0  0  0  0  0  0
    4.1882   -1.5016    0.0000 C   0  0  0  0  0  0  0  0  0  0  0  0
    4.8223   -0.2640    0.0000 O   0  0  0  0  0  0  0  0  0  0  0  0
    4.8775   -1.1379    0.0000 C   0  0  0  0  0  0  0  0  0  0  0  0
    4.0997   -2.3348    0.0000 O   0  0  0  0  0  0  0  0  0  0  0  0
  1  2  1  0  0  0  0
  2 16  2  0  0  0  0
  3  1  2  0  0  0  0
  3 10  1  0  0  0  0
  4  3  1  0  0  0  0
  4  5  1  0  0  0  0
  5  6  1  0  0  0  0
  6  7  1  0  0  0  0
  7  8  1  0  0  0  0
  8  9  1  0  0  0  0
  9  4  1  0  0  0  0
 10 14  2  0  0  0  0
 11 10  1  0  0  0  0
 11 12  2  0  0  0  0
 13 12  1  0  0  0  0
 14 15  1  0  0  0  0
 14 16  1  0  0  0  0
 15 13  2  0  0  0  0
 17 18  1  0  0  0  0
 17 19  1  0  0  0  0
 17 20  1  0  0  0  0
 17  2  1  0  0  0  0
 21 22  1  0  0  0  0
 22 23  2  0  0  0  0
 22 29  1  0  0  0  0
 23 24  1  0  0  0  0
 24 26  2  0  0  0  0
 25 24  1  0  0  0  0
 26 27  1  0  0  0  0
 28 26  1  0  0  0  0
 29 28  2  0  0  0  0
 30 27  1  0  0  0  0
 30 32  1  0  0  0  0
 31 32  2  0  0  0  0
 32  7  1  0  0  0  0
 33 30  2  0  0  0  0
M  END
> <ID>
SCHEMBL21137991

> <InChIKey>
YSSRRFLHQAIUDX-UHFFFAOYSA-N

> <MW>
479.86

> <Series_Name>
Series_12

$$$$
SCHEMBL21137992
  Mrv1719007171910242D 0   0.00000     0.00000     0

 29 32  0  0  0  0              1 V2000 
    7.6991   -2.7260    0.0000 C   0  0  0  0  0  0  0  0  0  0  0  0
    7.7011   -3.5528    0.0000 C   0  0  0  0  0  0  0  0  0  0  0  0
    6.9612   -2.3239    0.0000 C   0  0  0  0  0  0  0  0  0  0  0  0
    6.2524   -2.7205    0.0000 C   0  0  0  0  0  0  0  0  0  0  0  0
    5.5478   -2.3161    0.0000 C   0  0  0  0  0  0  0  0  0  0  0  0
    5.5293   -1.5004    0.0000 N   0  0  0  0  0  0  0  0  0  0  0  0
    6.2615   -1.0888    0.0000 C   0  0  0  0  0  0  0  0  0  0  0  0
    6.9794   -1.4819    0.0000 C   0  0  0  0  0  0  0  0  0  0  0  0
    8.4147   -2.3197    0.0000 C   0  0  0  0  0  0  0  0  0  0  0  0
    8.4235   -1.4767    0.0000 C   0  0  0  0  0  0  0  0  0  0  0  0
    9.1157   -1.0892    0.0000 C   0  0  0  0  0  0  0  0  0  0  0  0
    9.1275   -0.2640    0.0000 F   0  0  0  0  0  0  0  0  0  0  0  0
    9.8551   -1.4821    0.0000 C   0  0  0  0  0  0  0  0  0  0  0  0
    9.8525   -2.3071    0.0000 C   0  0  0  0  0  0  0  0  0  0  0  0
    9.1375   -2.7197    0.0000 C   0  0  0  0  0  0  0  0  0  0  0  0
    9.1275   -3.5426    0.0000 N   0  0  0  0  0  0  0  0  0  0  0  0
    8.4110   -3.9412    0.0000 C   0  0  0  0  0  0  0  0  0  0  0  0
    0.3848   -2.7264    0.0000 Cl  0  0  0  0  0  0  0  0  0  0  0  0
    1.2428   -2.3205    0.0000 C   0  0  0  0  0  0  0  0  0  0  0  0
    1.2451   -1.4829    0.0000 C   0  0  0  0  0  0  0  0  0  0  0  0
    1.9536   -1.0865    0.0000 C   0  0  0  0  0  0  0  0  0  0  0  0
    2.6759   -1.4847    0.0000 C   0  0  0  0  0  0  0  0  0  0  0  0
    3.3829   -0.8475    0.0000 N   0  0  0  0  0  0  0  0  0  0  0  0
    2.6726   -2.3108    0.0000 C   0  0  0  0  0  0  0  0  0  0  0  0
    1.9499   -2.7199    0.0000 C   0  0  0  0  0  0  0  0  0  0  0  0
    4.2126   -1.4323    0.0000 C   0  0  0  0  0  0  0  0  0  0  0  0
    4.8208   -0.2640    0.0000 O   0  0  0  0  0  0  0  0  0  0  0  0
    4.8760   -1.1090    0.0000 C   0  0  0  0  0  0  0  0  0  0  0  0
    4.0984   -2.3201    0.0000 O   0  0  0  0  0  0  0  0  0  0  0  0
  1  2  2  0  0  0  0
  1  9  1  0  0  0  0
  2 17  1  0  0  0  0
  3  1  1  0  0  0  0
  4  5  1  0  0  0  0
  4  3  1  0  0  0  0
  5  6  1  0  0  0  0
  7  6  1  0  0  0  0
  7  8  1  0  0  0  0
  8  3  1  0  0  0  0
  9 15  2  0  0  0  0
 10  9  1  0  0  0  0
 10 11  2  0  0  0  0
 11 12  1  0  0  0  0
 13 11  1  0  0  0  0
 14 13  2  0  0  0  0
 15 16  1  0  0  0  0
 15 14  1  0  0  0  0
 17 16  2  0  0  0  0
 18 19  1  0  0  0  0
 19 20  2  0  0  0  0
 19 25  1  0  0  0  0
 20 21  1  0  0  0  0
 21 22  2  0  0  0  0
 22 23  1  0  0  0  0
 24 22  1  0  0  0  0
 25 24  2  0  0  0  0
 26 23  1  0  0  0  0
 26 28  1  0  0  0  0
 27 28  2  0  0  0  0
 28  6  1  0  0  0  0
 29 26  2  0  0  0  0
M  END
> <ID>
SCHEMBL21137992

> <InChIKey>
BBNKZBRNGRLKCM-UHFFFAOYSA-N

> <MW>
411.86

> <Series_Name>
Series_12

$$$$
SCHEMBL21137993
  Mrv1719007171910242D 0   0.00000     0.00000     0

 28 31  0  0  0  0              1 V2000 
    7.6496   -2.7728    0.0000 C   0  0  0  0  0  0  0  0  0  0  0  0
    7.6520   -3.6053    0.0000 C   0  0  0  0  0  0  0  0  0  0  0  0
    6.2243   -2.7703    0.0000 C   0  0  0  0  0  0  0  0  0  0  0  0
    5.5136   -2.3636    0.0000 C   0  0  0  0  0  0  0  0  0  0  0  0
    5.5049   -1.5177    0.0000 N   0  0  0  0  0  0  0  0  0  0  0  0
    6.9361   -2.3732    0.0000 C   0  0  0  0  0  0  0  0  0  0  0  0
    6.2323   -1.1214    0.0000 C   0  0  0  0  0  0  0  0  0  0  0  0
    6.9449   -1.5271    0.0000 C   0  0  0  0  0  0  0  0  0  0  0  0
    8.3695   -1.5284    0.0000 C   0  0  0  0  0  0  0  0  0  0  0  0
    8.3647   -2.3624    0.0000 C   0  0  0  0  0  0  0  0  0  0  0  0
    9.1075   -1.1210    0.0000 C   0  0  0  0  0  0  0  0  0  0  0  0
    9.8056   -1.5375    0.0000 C   0  0  0  0  0  0  0  0  0  0  0  0
    9.8037   -2.3536    0.0000 C   0  0  0  0  0  0  0  0  0  0  0  0
    9.0645   -3.5871    0.0000 N   0  0  0  0  0  0  0  0  0  0  0  0
    9.0822   -2.7742    0.0000 C   0  0  0  0  0  0  0  0  0  0  0  0
    8.3693   -4.0102    0.0000 C   0  0  0  0  0  0  0  0  0  0  0  0
    0.3752   -2.7662    0.0000 Cl  0  0  0  0  0  0  0  0  0  0  0  0
    1.2336   -2.3611    0.0000 C   0  0  0  0  0  0  0  0  0  0  0  0
    1.2365   -1.5271    0.0000 C   0  0  0  0  0  0  0  0  0  0  0  0
    1.9552   -1.1128    0.0000 C   0  0  0  0  0  0  0  0  0  0  0  0
    2.6477   -1.5133    0.0000 C   0  0  0  0  0  0  0  0  0  0  0  0
    3.3664   -0.8623    0.0000 N   0  0  0  0  0  0  0  0  0  0  0  0
    2.6680   -2.3635    0.0000 C   0  0  0  0  0  0  0  0  0  0  0  0
    1.9501   -2.7701    0.0000 C   0  0  0  0  0  0  0  0  0  0  0  0
    4.1630   -1.4957    0.0000 C   0  0  0  0  0  0  0  0  0  0  0  0
    4.7270   -1.1399    0.0000 C   0  0  0  0  0  0  0  0  0  0  0  0
    4.7875   -0.2759    0.0000 O   0  0  0  0  0  0  0  0  0  0  0  0
    4.0838   -2.3455    0.0000 O   0  0  0  0  0  0  0  0  0  0  0  0
  1  2  2  0  0  0  0
  1 10  1  0  0  0  0
  2 16  1  0  0  0  0
  3  4  1  0  0  0  0
  3  6  1  0  0  0  0
  4  5  1  0  0  0  0
  5  7  1  0  0  0  0
  5 26  1  0  0  0  0
  6  1  1  0  0  0  0
  7  8  1  0  0  0  0
  8  6  1  0  0  0  0
  9 10  1  0  0  0  0
  9 11  2  0  0  0  0
 10 15  2  0  0  0  0
 12 11  1  0  0  0  0
 13 12  2  0  0  0  0
 14 15  1  0  0  0  0
 15 13  1  0  0  0  0
 16 14  2  0  0  0  0
 17 18  1  0  0  0  0
 18 19  2  0  0  0  0
 18 24  1  0  0  0  0
 19 20  1  0  0  0  0
 20 21  2  0  0  0  0
 21 22  1  0  0  0  0
 23 21  1  0  0  0  0
 24 23  2  0  0  0  0
 25 22  1  0  0  0  0
 25 26  1  0  0  0  0
 26 27  2  0  0  0  0
 28 25  2  0  0  0  0
M  END
> <ID>
SCHEMBL21137993

> <InChIKey>
FEWFNQACADFONE-UHFFFAOYSA-N

> <MW>
393.87

> <Series_Name>
Series_12

$$$$
SCHEMBL21137995
  Mrv1719007171910242D 0   0.00000     0.00000     0

 29 32  0  0  0  0              1 V2000 
    6.8578   -2.3578    0.0000 C   0  0  0  0  0  0  0  0  0  0  0  0
    7.5873   -2.7520    0.0000 C   0  0  0  0  0  0  0  0  0  0  0  0
    6.1594   -2.7485    0.0000 C   0  0  0  0  0  0  0  0  0  0  0  0
    5.4654   -2.3501    0.0000 C   0  0  0  0  0  0  0  0  0  0  0  0
    5.4472   -1.5054    0.0000 N   0  0  0  0  0  0  0  0  0  0  0  0
    6.1686   -1.1136    0.0000 C   0  0  0  0  0  0  0  0  0  0  0  0
    6.8757   -1.5148    0.0000 C   0  0  0  0  0  0  0  0  0  0  0  0
    8.2679   -2.3595    0.0000 C   0  0  0  0  0  0  0  0  0  0  0  0
    8.2888   -1.5162    0.0000 C   0  0  0  0  0  0  0  0  0  0  0  0
    9.0386   -1.1128    0.0000 C   0  0  0  0  0  0  0  0  0  0  0  0
    9.7087   -1.5162    0.0000 C   0  0  0  0  0  0  0  0  0  0  0  0
    9.7062   -2.3412    0.0000 C   0  0  0  0  0  0  0  0  0  0  0  0
    9.0017   -2.7478    0.0000 C   0  0  0  0  0  0  0  0  0  0  0  0
    8.9920   -3.5585    0.0000 N   0  0  0  0  0  0  0  0  0  0  0  0
    7.5907   -3.5806    0.0000 C   0  0  0  0  0  0  0  0  0  0  0  0
    8.2797   -3.9783    0.0000 C   0  0  0  0  0  0  0  0  0  0  0  0
    0.3722   -2.7441    0.0000 Cl  0  0  0  0  0  0  0  0  0  0  0  0
    1.2060   -2.3558    0.0000 C   0  0  0  0  0  0  0  0  0  0  0  0
    1.2225   -1.5092    0.0000 C   0  0  0  0  0  0  0  0  0  0  0  0
    1.9204   -1.1088    0.0000 C   0  0  0  0  0  0  0  0  0  0  0  0
    1.9160   -0.2737    0.0000 F   0  0  0  0  0  0  0  0  0  0  0  0
    2.6153   -1.5019    0.0000 C   0  0  0  0  0  0  0  0  0  0  0  0
    3.3257   -0.8554    0.0000 N   0  0  0  0  0  0  0  0  0  0  0  0
    2.6329   -2.3448    0.0000 C   0  0  0  0  0  0  0  0  0  0  0  0
    1.9209   -2.7478    0.0000 C   0  0  0  0  0  0  0  0  0  0  0  0
    3.9859   -1.4926    0.0000 C   0  0  0  0  0  0  0  0  0  0  0  0
    4.8100   -1.1311    0.0000 C   0  0  0  0  0  0  0  0  0  0  0  0
    4.7492   -0.2737    0.0000 O   0  0  0  0  0  0  0  0  0  0  0  0
    4.0375   -2.3266    0.0000 O   0  0  0  0  0  0  0  0  0  0  0  0
  1  2  1  0  0  0  0
  2  8  1  0  0  0  0
  2 15  2  0  0  0  0
  3  4  1  0  0  0  0
  3  1  1  0  0  0  0
  4  5  1  0  0  0  0
  6  5  1  0  0  0  0
  6  7  1  0  0  0  0
  7  1  1  0  0  0  0
  8 13  2  0  0  0  0
  9  8  1  0  0  0  0
  9 10  2  0  0  0  0
 11 10  1  0  0  0  0
 12 11  2  0  0  0  0
 13 14  1  0  0  0  0
 13 12  1  0  0  0  0
 15 16  1  0  0  0  0
 16 14  2  0  0  0  0
 17 18  1  0  0  0  0
 18 19  2  0  0  0  0
 18 25  1  0  0  0  0
 19 20  1  0  0  0  0
 20 22  2  0  0  0  0
 21 20  1  0  0  0  0
 22 23  1  0  0  0  0
 22 24  1  0  0  0  0
 23 26  1  0  0  0  0
 25 24  2  0  0  0  0
 26 29  2  0  0  0  0
 27 26  1  0  0  0  0
 27  5  1  0  0  0  0
 28 27  2  0  0  0  0
M  END
> <ID>
SCHEMBL21137995

> <InChIKey>
LGNNZMFVGKRDPZ-UHFFFAOYSA-N

> <MW>
411.86

> <Series_Name>
Series_12

$$$$
SCHEMBL21138003
  Mrv1719007171910252D 0   0.00000     0.00000     0

 31 34  0  0  0  0              1 V2000 
    9.1703   -2.7347    0.0000 C   0  0  0  0  0  0  0  0  0  0  0  0
    9.1889   -3.5615    0.0000 C   0  0  0  0  0  0  0  0  0  0  0  0
    8.4473   -2.3469    0.0000 C   0  0  0  0  0  0  0  0  0  0  0  0
    7.7410   -2.7450    0.0000 C   0  0  0  0  0  0  0  0  0  0  0  0
    7.0151   -2.3619    0.0000 C   0  0  0  0  0  0  0  0  0  0  0  0
    6.9759   -1.5347    0.0000 N   0  0  0  0  0  0  0  0  0  0  0  0
    8.4315   -1.5210    0.0000 C   0  0  0  0  0  0  0  0  0  0  0  0
    7.7362   -1.1231    0.0000 C   0  0  0  0  0  0  0  0  0  0  0  0
    9.8971   -2.3130    0.0000 C   0  0  0  0  0  0  0  0  0  0  0  0
    9.8855   -1.4757    0.0000 C   0  0  0  0  0  0  0  0  0  0  0  0
   10.6114   -1.0743    0.0000 C   0  0  0  0  0  0  0  0  0  0  0  0
   10.5893   -0.2651    0.0000 F   0  0  0  0  0  0  0  0  0  0  0  0
   11.3183   -1.4607    0.0000 C   0  0  0  0  0  0  0  0  0  0  0  0
   11.3314   -2.3026    0.0000 C   0  0  0  0  0  0  0  0  0  0  0  0
   10.6173   -3.5577    0.0000 N   0  0  0  0  0  0  0  0  0  0  0  0
   10.6186   -2.7135    0.0000 C   0  0  0  0  0  0  0  0  0  0  0  0
    9.8708   -3.9571    0.0000 C   0  0  0  0  0  0  0  0  0  0  0  0
    0.3864   -2.8636    0.0000 Cl  0  0  0  0  0  0  0  0  0  0  0  0
    1.2435   -2.4274    0.0000 C   0  0  0  0  0  0  0  0  0  0  0  0
    1.9636   -2.8114    0.0000 C   0  0  0  0  0  0  0  0  0  0  0  0
    2.6861   -2.4125    0.0000 C   0  0  0  0  0  0  0  0  0  0  0  0
    2.6681   -1.5913    0.0000 C   0  0  0  0  0  0  0  0  0  0  0  0
    3.4199   -1.1807    0.0000 C   0  0  0  0  0  0  0  0  0  0  0  0
    4.0985   -1.5574    0.0000 C   0  0  0  0  0  0  0  0  0  0  0  0
    4.8273   -0.9208    0.0000 N   0  0  0  0  0  0  0  0  0  0  0  0
    4.1410   -2.3684    0.0000 C   0  0  0  0  0  0  0  0  0  0  0  0
    3.4154   -2.7982    0.0000 C   0  0  0  0  0  0  0  0  0  0  0  0
    5.6359   -1.5138    0.0000 C   0  0  0  0  0  0  0  0  0  0  0  0
    6.2004   -1.1646    0.0000 C   0  0  0  0  0  0  0  0  0  0  0  0
    6.2364   -0.3209    0.0000 O   0  0  0  0  0  0  0  0  0  0  0  0
    5.5528   -2.3718    0.0000 O   0  0  0  0  0  0  0  0  0  0  0  0
  1  2  2  0  0  0  0
  1  9  1  0  0  0  0
  2 17  1  0  0  0  0
  3  1  1  0  0  0  0
  3  4  1  0  0  0  0
  3  7  1  0  0  0  0
  4  5  1  0  0  0  0
  5  6  1  0  0  0  0
  6 29  1  0  0  0  0
  8  6  1  0  0  0  0
  8  7  1  0  0  0  0
  9 16  2  0  0  0  0
 10  9  1  0  0  0  0
 10 11  2  0  0  0  0
 11 12  1  0  0  0  0
 11 13  1  0  0  0  0
 13 14  2  0  0  0  0
 15 16  1  0  0  0  0
 16 14  1  0  0  0  0
 17 15  2  0  0  0  0
 18 19  1  0  0  0  0
 19 20  1  0  0  0  0
 21 20  1  0  0  0  0
 21 27  1  0  0  0  0
 22 21  2  0  0  0  0
 22 23  1  0  0  0  0
 23 24  2  0  0  0  0
 24 25  1  0  0  0  0
 26 24  1  0  0  0  0
 27 26  2  0  0  0  0
 28 25  1  0  0  0  0
 28 29  1  0  0  0  0
 29 30  2  0  0  0  0
 31 28  2  0  0  0  0
M  END
> <ID>
SCHEMBL21138003

> <InChIKey>
FHEKXUGNRXBRSL-UHFFFAOYSA-N

> <MW>
439.92

> <Series_Name>
Series_12

$$$$
SCHEMBL21138009
  Mrv1719007171910252D 0   0.00000     0.00000     0

 29 32  0  0  0  0              1 V2000 
    6.9231   -3.1603    0.0000 C   0  0  0  0  0  0  0  0  0  0  0  0
    7.6541   -3.5774    0.0000 C   0  0  0  0  0  0  0  0  0  0  0  0
    6.2368   -3.5790    0.0000 C   0  0  0  0  0  0  0  0  0  0  0  0
    5.4983   -3.1889    0.0000 C   0  0  0  0  0  0  0  0  0  0  0  0
    5.4809   -2.3608    0.0000 N   0  0  0  0  0  0  0  0  0  0  0  0
    6.2273   -1.9362    0.0000 C   0  0  0  0  0  0  0  0  0  0  0  0
    6.9214   -2.3142    0.0000 C   0  0  0  0  0  0  0  0  0  0  0  0
    8.3434   -3.1469    0.0000 C   0  0  0  0  0  0  0  0  0  0  0  0
    8.3473   -2.3013    0.0000 C   0  0  0  0  0  0  0  0  0  0  0  0
    9.0497   -1.8982    0.0000 C   0  0  0  0  0  0  0  0  0  0  0  0
    9.1790   -1.0631    0.0000 Cl  0  0  0  0  0  0  0  0  0  0  0  0
    9.7796   -2.2881    0.0000 C   0  0  0  0  0  0  0  0  0  0  0  0
    9.7775   -3.1289    0.0000 C   0  0  0  0  0  0  0  0  0  0  0  0
    9.0752   -3.5587    0.0000 C   0  0  0  0  0  0  0  0  0  0  0  0
    9.0704   -4.3902    0.0000 N   0  0  0  0  0  0  0  0  0  0  0  0
    7.6570   -4.4024    0.0000 C   0  0  0  0  0  0  0  0  0  0  0  0
    8.3716   -4.8009    0.0000 C   0  0  0  0  0  0  0  0  0  0  0  0
    0.3755   -3.6654    0.0000 Cl  0  0  0  0  0  0  0  0  0  0  0  0
    1.2225   -3.2442    0.0000 C   0  0  0  0  0  0  0  0  0  0  0  0
    1.2235   -2.3850    0.0000 C   0  0  0  0  0  0  0  0  0  0  0  0
    1.9480   -1.9932    0.0000 C   0  0  0  0  0  0  0  0  0  0  0  0
    2.6435   -2.3725    0.0000 C   0  0  0  0  0  0  0  0  0  0  0  0
    3.3410   -1.7188    0.0000 N   0  0  0  0  0  0  0  0  0  0  0  0
    1.9383   -3.6419    0.0000 C   0  0  0  0  0  0  0  0  0  0  0  0
    2.6421   -3.2153    0.0000 C   0  0  0  0  0  0  0  0  0  0  0  0
    3.9658   -2.3176    0.0000 C   0  0  0  0  0  0  0  0  0  0  0  0
    4.7011   -1.9627    0.0000 C   0  0  0  0  0  0  0  0  0  0  0  0
    4.7630   -1.1045    0.0000 O   0  0  0  0  0  0  0  0  0  0  0  0
    4.0589   -3.2029    0.0000 O   0  0  0  0  0  0  0  0  0  0  0  0
  1  2  1  0  0  0  0
  2 16  2  0  0  0  0
  3  4  1  0  0  0  0
  3  1  1  0  0  0  0
  4  5  1  0  0  0  0
  5  6  1  0  0  0  0
  5 27  1  0  0  0  0
  6  7  1  0  0  0  0
  7  1  1  0  0  0  0
  8  2  1  0  0  0  0
  8 14  2  0  0  0  0
  9  8  1  0  0  0  0
  9 10  2  0  0  0  0
 10 11  1  0  0  0  0
 12 10  1  0  0  0  0
 13 12  2  0  0  0  0
 14 13  1  0  0  0  0
 15 14  1  0  0  0  0
 16 17  1  0  0  0  0
 17 15  2  0  0  0  0
 18 19  1  0  0  0  0
 19 20  2  0  0  0  0
 19 24  1  0  0  0  0
 20 21  1  0  0  0  0
 21 22  2  0  0  0  0
 22 23  1  0  0  0  0
 23 26  1  0  0  0  0
 24 25  2  0  0  0  0
 25 22  1  0  0  0  0
 26 29  2  0  0  0  0
 27 26  1  0  0  0  0
 27 28  2  0  0  0  0
M  END
> <ID>
SCHEMBL21138009

> <InChIKey>
FACSCJMHASTSCM-UHFFFAOYSA-N

> <MW>
428.31

> <Series_Name>
Series_12

$$$$
SCHEMBL21138010
  Mrv1719007171910252D 0   0.00000     0.00000     0

 29 32  0  0  0  0              1 V2000 
    7.6060   -2.7150    0.0000 C   0  0  0  0  0  0  0  0  0  0  0  0
    7.6278   -3.5479    0.0000 C   0  0  0  0  0  0  0  0  0  0  0  0
    6.9081   -2.3109    0.0000 C   0  0  0  0  0  0  0  0  0  0  0  0
    6.1915   -2.7307    0.0000 C   0  0  0  0  0  0  0  0  0  0  0  0
    5.4923   -2.3265    0.0000 C   0  0  0  0  0  0  0  0  0  0  0  0
    5.4467   -1.5138    0.0000 N   0  0  0  0  0  0  0  0  0  0  0  0
    6.1754   -1.0770    0.0000 C   0  0  0  0  0  0  0  0  0  0  0  0
    6.8883   -1.4776    0.0000 C   0  0  0  0  0  0  0  0  0  0  0  0
    8.3211   -2.3117    0.0000 C   0  0  0  0  0  0  0  0  0  0  0  0
    8.3032   -1.4691    0.0000 C   0  0  0  0  0  0  0  0  0  0  0  0
    9.0150   -1.0499    0.0000 C   0  0  0  0  0  0  0  0  0  0  0  0
    9.7287   -1.4550    0.0000 C   0  0  0  0  0  0  0  0  0  0  0  0
   10.5686   -1.0339    0.0000 Cl  0  0  0  0  0  0  0  0  0  0  0  0
    9.7447   -2.2826    0.0000 C   0  0  0  0  0  0  0  0  0  0  0  0
    9.0295   -2.7011    0.0000 C   0  0  0  0  0  0  0  0  0  0  0  0
    9.0362   -3.5271    0.0000 N   0  0  0  0  0  0  0  0  0  0  0  0
    8.3198   -3.9436    0.0000 C   0  0  0  0  0  0  0  0  0  0  0  0
    1.2433   -2.3785    0.0000 C   0  0  0  0  0  0  0  0  0  0  0  0
    0.3931   -2.8131    0.0000 Cl  0  0  0  0  0  0  0  0  0  0  0  0
    1.9240   -1.1402    0.0000 C   0  0  0  0  0  0  0  0  0  0  0  0
    1.2238   -1.5364    0.0000 C   0  0  0  0  0  0  0  0  0  0  0  0
    2.6386   -1.5257    0.0000 C   0  0  0  0  0  0  0  0  0  0  0  0
    3.3320   -0.8818    0.0000 N   0  0  0  0  0  0  0  0  0  0  0  0
    2.6650   -2.3503    0.0000 C   0  0  0  0  0  0  0  0  0  0  0  0
    1.9365   -2.7888    0.0000 C   0  0  0  0  0  0  0  0  0  0  0  0
    4.1263   -1.4886    0.0000 C   0  0  0  0  0  0  0  0  0  0  0  0
    4.6837   -1.1282    0.0000 C   0  0  0  0  0  0  0  0  0  0  0  0
    4.7288   -0.2653    0.0000 O   0  0  0  0  0  0  0  0  0  0  0  0
    4.0577   -2.3566    0.0000 O   0  0  0  0  0  0  0  0  0  0  0  0
  1  2  2  0  0  0  0
  1  9  1  0  0  0  0
  2 17  1  0  0  0  0
  3  1  1  0  0  0  0
  3  4  1  0  0  0  0
  5  6  1  0  0  0  0
  5  4  1  0  0  0  0
  6 27  1  0  0  0  0
  7  6  1  0  0  0  0
  7  8  1  0  0  0  0
  8  3  1  0  0  0  0
  9 15  2  0  0  0  0
 10  9  1  0  0  0  0
 10 11  2  0  0  0  0
 11 12  1  0  0  0  0
 12 14  2  0  0  0  0
 13 12  1  0  0  0  0
 15 14  1  0  0  0  0
 15 16  1  0  0  0  0
 17 16  2  0  0  0  0
 18 19  1  0  0  0  0
 18 25  1  0  0  0  0
 20 21  1  0  0  0  0
 20 22  2  0  0  0  0
 21 18  2  0  0  0  0
 22 23  1  0  0  0  0
 24 22  1  0  0  0  0
 25 24  2  0  0  0  0
 26 23  1  0  0  0  0
 26 27  1  0  0  0  0
 27 28  2  0  0  0  0
 29 26  2  0  0  0  0
M  END
> <ID>
SCHEMBL21138010

> <InChIKey>
NZMXFLXDWXVJEE-UHFFFAOYSA-N

> <MW>
428.31

> <Series_Name>
Series_12

$$$$
SCHEMBL21138011
  Mrv1719007171910252D 0   0.00000     0.00000     0

 30 33  0  0  1  0              1 V2000 
    7.6122   -2.7541    0.0000 C   0  0  0  0  0  0  0  0  0  0  0  0
    7.6152   -3.5858    0.0000 C   0  0  0  0  0  0  0  0  0  0  0  0
    8.3144   -2.3342    0.0000 C   0  0  0  0  0  0  0  0  0  0  0  0
    8.3136   -1.4964    0.0000 C   0  0  0  0  0  0  0  0  0  0  0  0
    9.0170   -1.0780    0.0000 C   0  0  0  0  0  0  0  0  0  0  0  0
    9.0082   -0.2601    0.0000 F   0  0  0  0  0  0  0  0  0  0  0  0
    9.7345   -1.5186    0.0000 C   0  0  0  0  0  0  0  0  0  0  0  0
    9.0427   -2.7243    0.0000 C   0  0  0  0  0  0  0  0  0  0  0  0
    9.0219   -3.5731    0.0000 N   0  0  0  0  0  0  0  0  0  0  0  0
    8.3342   -3.9801    0.0000 C   0  0  0  0  0  0  0  0  0  0  0  0
    9.7355   -2.3135    0.0000 C   0  0  0  0  0  0  0  0  0  0  0  0
    0.3723   -2.8545    0.0000 Cl  0  0  0  0  0  0  0  0  0  0  0  0
    1.2041   -2.4225    0.0000 C   0  0  0  0  0  0  0  0  0  0  0  0
    1.2082   -1.5914    0.0000 C   0  0  0  0  0  0  0  0  0  0  0  0
    1.9324   -1.1962    0.0000 C   0  0  0  0  0  0  0  0  0  0  0  0
    2.6478   -1.5687    0.0000 C   0  0  0  0  0  0  0  0  0  0  0  0
    3.3131   -0.9241    0.0000 N   0  0  0  0  0  0  0  0  0  0  0  0
    2.6337   -2.3995    0.0000 C   0  0  0  0  0  0  0  0  0  0  0  0
    1.8962   -2.8098    0.0000 C   0  0  0  0  0  0  0  0  0  0  0  0
    5.4487   -1.5470    0.0000 N   0  0  0  0  0  0  0  0  0  0  0  0
    5.4931   -2.3770    0.0000 C   0  0  0  0  0  0  0  0  0  0  0  0
    6.1685   -1.1278    0.0000 C   0  0  0  0  0  0  0  0  0  0  0  0
    6.8967   -1.5238    0.0000 C   0  0  0  0  0  0  0  0  0  0  0  0
    6.8836   -2.3363    0.0000 C   0  0  1  0  0  0  0  0  0  0  0  0
    3.9739   -1.5385    0.0000 C   0  0  0  0  0  0  0  0  0  0  0  0
    4.6719   -1.1716    0.0000 C   0  0  0  0  0  0  0  0  0  0  0  0
    4.7231   -0.3149    0.0000 O   0  0  0  0  0  0  0  0  0  0  0  0
    4.0387   -2.3821    0.0000 O   0  0  0  0  0  0  0  0  0  0  0  0
    6.1902   -2.7574    0.0000 C   0  0  2  0  0  0  0  0  0  0  0  0
    6.4002   -3.6006    0.0000 O   0  0  0  0  0  0  0  0  0  0  0  0
  1  2  2  0  0  0  0
  1  3  1  0  0  0  0
  2 10  1  0  0  0  0
  3  8  2  0  0  0  0
  4  3  1  0  0  0  0
  4  5  2  0  0  0  0
  5  6  1  0  0  0  0
  5  7  1  0  0  0  0
  7 11  2  0  0  0  0
  8  9  1  0  0  0  0
  8 11  1  0  0  0  0
 10  9  2  0  0  0  0
 12 13  1  0  0  0  0
 13 14  2  0  0  0  0
 13 19  1  0  0  0  0
 14 15  1  0  0  0  0
 15 16  2  0  0  0  0
 16 17  1  0  0  0  0
 17 25  1  0  0  0  0
 18 16  1  0  0  0  0
 19 18  2  0  0  0  0
 20 21  1  0  0  0  0
 20 26  1  0  0  0  0
 22 20  1  0  0  0  0
 22 23  1  0  0  0  0
 24 23  1  0  0  0  0
 24  1  1  6  0  0  0
 25 28  2  0  0  0  0
 26 27  2  0  0  0  0
 26 25  1  0  0  0  0
 29 30  1  6  0  0  0
 24 29  1  0  0  0  0
 29 21  1  0  0  0  0
M  END
> <ID>
SCHEMBL21138011

> <InChIKey>
GZSMNWZYUMDTHO-YLJYHZDGSA-N

> <MW>
427.86

> <Series_Name>
Series_12

$$$$
SCHEMBL21138013
  Mrv1719007171910252D 0   0.00000     0.00000     0

 31 34  0  0  0  0              1 V2000 
    7.6697   -3.9773    0.0000 C   0  0  0  0  0  0  0  0  0  0  0  0
    7.6723   -3.1486    0.0000 C   0  0  0  0  0  0  0  0  0  0  0  0
    6.9424   -2.7629    0.0000 C   0  0  0  0  0  0  0  0  0  0  0  0
    6.2345   -3.1777    0.0000 C   0  0  0  0  0  0  0  0  0  0  0  0
    5.5160   -2.7864    0.0000 C   0  0  0  0  0  0  0  0  0  0  0  0
    5.4838   -1.9614    0.0000 N   0  0  0  0  0  0  0  0  0  0  0  0
    6.9324   -1.9318    0.0000 C   0  0  0  0  0  0  0  0  0  0  0  0
    6.2032   -1.5532    0.0000 C   0  0  0  0  0  0  0  0  0  0  0  0
    8.3742   -1.9208    0.0000 C   0  0  0  0  0  0  0  0  0  0  0  0
    8.3768   -2.7508    0.0000 C   0  0  0  0  0  0  0  0  0  0  0  0
    9.0594   -1.5109    0.0000 C   0  0  0  0  0  0  0  0  0  0  0  0
    9.1090   -0.7413    0.0000 C   0  0  0  0  0  0  0  0  0  0  0  0
    9.8118   -1.9066    0.0000 C   0  0  0  0  0  0  0  0  0  0  0  0
    9.0890   -3.9782    0.0000 N   0  0  0  0  0  0  0  0  0  0  0  0
    9.1103   -3.1355    0.0000 C   0  0  0  0  0  0  0  0  0  0  0  0
    8.4028   -4.3909    0.0000 C   0  0  0  0  0  0  0  0  0  0  0  0
    9.8057   -2.7247    0.0000 C   0  0  0  0  0  0  0  0  0  0  0  0
    0.3757   -3.2599    0.0000 Cl  0  0  0  0  0  0  0  0  0  0  0  0
    1.2227   -2.8325    0.0000 C   0  0  0  0  0  0  0  0  0  0  0  0
    1.2268   -2.0020    0.0000 C   0  0  0  0  0  0  0  0  0  0  0  0
    1.9295   -1.5924    0.0000 C   0  0  0  0  0  0  0  0  0  0  0  0
    2.6599   -1.9888    0.0000 C   0  0  0  0  0  0  0  0  0  0  0  0
    3.3428   -1.3399    0.0000 N   0  0  0  0  0  0  0  0  0  0  0  0
    2.6573   -2.8217    0.0000 C   0  0  0  0  0  0  0  0  0  0  0  0
    1.9568   -3.2089    0.0000 C   0  0  0  0  0  0  0  0  0  0  0  0
    4.1034   -1.9522    0.0000 C   0  0  0  0  0  0  0  0  0  0  0  0
    4.7011   -1.5840    0.0000 C   0  0  0  0  0  0  0  0  0  0  0  0
    4.7655   -0.7459    0.0000 O   0  0  0  0  0  0  0  0  0  0  0  0
    4.0611   -2.8041    0.0000 O   0  0  0  0  0  0  0  0  0  0  0  0
    9.7658   -0.2624    0.0000 N   0  0  0  0  0  0  0  0  0  0  0  0
    8.9923   -0.5395    0.0000 C   0  0  0  0  0  0  0  0  0  0  0  0
  1  2  2  0  0  0  0
  1 16  1  0  0  0  0
  2  3  1  0  0  0  0
  2 10  1  0  0  0  0
  3  4  1  0  0  0  0
  3  7  1  0  0  0  0
  4  5  1  0  0  0  0
  5  6  1  0  0  0  0
  6 27  1  0  0  0  0
  7  8  1  0  0  0  0
  8  6  1  0  0  0  0
  9 10  1  0  0  0  0
  9 11  2  0  0  0  0
 10 15  2  0  0  0  0
 11 12  1  0  0  0  0
 12 30  2  0  0  0  0
 13 11  1  0  0  0  0
 14 15  1  0  0  0  0
 15 17  1  0  0  0  0
 16 14  2  0  0  0  0
 17 13  2  0  0  0  0
 18 19  1  0  0  0  0
 19 20  2  0  0  0  0
 19 25  1  0  0  0  0
 20 21  1  0  0  0  0
 21 22  2  0  0  0  0
 22 23  1  0  0  0  0
 24 22  1  0  0  0  0
 25 24  2  0  0  0  0
 26 23  1  0  0  0  0
 26 27  1  0  0  0  0
 27 28  2  0  0  0  0
 29 26  2  0  0  0  0
 30 31  1  0  0  0  0
M  END
> <ID>
SCHEMBL21138013

> <InChIKey>
ORSXZUFKNZUYGC-CVKSISIWSA-N

> <MW>
434.92

> <Series_Name>
Series_12

$$$$
SCHEMBL21138014
  Mrv1719007171910252D 0   0.00000     0.00000     0

 32 35  0  0  0  0              1 V2000 
    7.1994   -2.3670    0.0000 C   0  0  0  0  0  0  0  0  0  0  0  0
    7.9036   -2.7720    0.0000 C   0  0  0  0  0  0  0  0  0  0  0  0
    6.4859   -2.7879    0.0000 C   0  0  0  0  0  0  0  0  0  0  0  0
    5.7783   -2.4060    0.0000 C   0  0  0  0  0  0  0  0  0  0  0  0
    5.7465   -1.5397    0.0000 N   0  0  0  0  0  0  0  0  0  0  0  0
    6.4608   -1.1413    0.0000 C   0  0  0  0  0  0  0  0  0  0  0  0
    7.1849   -1.5421    0.0000 C   0  0  0  0  0  0  0  0  0  0  0  0
    8.6140   -2.3502    0.0000 C   0  0  0  0  0  0  0  0  0  0  0  0
    8.6008   -1.5219    0.0000 C   0  0  0  0  0  0  0  0  0  0  0  0
    9.3165   -1.0965    0.0000 C   0  0  0  0  0  0  0  0  0  0  0  0
    9.2934   -0.2750    0.0000 F   0  0  0  0  0  0  0  0  0  0  0  0
   10.0260   -1.5160    0.0000 C   0  0  0  0  0  0  0  0  0  0  0  0
    9.3085   -2.7397    0.0000 C   0  0  0  0  0  0  0  0  0  0  0  0
    9.3347   -3.5743    0.0000 N   0  0  0  0  0  0  0  0  0  0  0  0
    7.9287   -3.6112    0.0000 C   0  0  0  0  0  0  0  0  0  0  0  0
    8.6269   -4.0102    0.0000 C   0  0  0  0  0  0  0  0  0  0  0  0
   10.0406   -2.3336    0.0000 C   0  0  0  0  0  0  0  0  0  0  0  0
    1.5204   -2.4356    0.0000 C   0  0  0  0  0  0  0  0  0  0  0  0
    1.0133   -2.6418    0.0000 C   0  0  0  0  0  0  0  0  0  0  0  0
    0.6772   -3.0739    0.0000 F   0  0  0  0  0  0  0  0  0  0  0  0
    1.2195   -3.1490    0.0000 F   0  0  0  0  0  0  0  0  0  0  0  0
    0.5812   -2.3058    0.0000 F   0  0  0  0  0  0  0  0  0  0  0  0
    1.5071   -1.6043    0.0000 C   0  0  0  0  0  0  0  0  0  0  0  0
    2.2429   -1.2184    0.0000 C   0  0  0  0  0  0  0  0  0  0  0  0
    2.9316   -1.5914    0.0000 C   0  0  0  0  0  0  0  0  0  0  0  0
    3.6225   -0.9142    0.0000 N   0  0  0  0  0  0  0  0  0  0  0  0
    2.9544   -2.4126    0.0000 C   0  0  0  0  0  0  0  0  0  0  0  0
    2.2161   -2.8391    0.0000 C   0  0  0  0  0  0  0  0  0  0  0  0
    4.4180   -1.5538    0.0000 C   0  0  0  0  0  0  0  0  0  0  0  0
    5.0179   -0.3161    0.0000 O   0  0  0  0  0  0  0  0  0  0  0  0
    5.0918   -1.1787    0.0000 C   0  0  0  0  0  0  0  0  0  0  0  0
    4.3442   -2.3921    0.0000 O   0  0  0  0  0  0  0  0  0  0  0  0
  1  2  1  0  0  0  0
  1  3  1  0  0  0  0
  2  8  1  0  0  0  0
  2 15  2  0  0  0  0
  3  4  1  0  0  0  0
  4  5  1  0  0  0  0
  5  6  1  0  0  0  0
  6  7  1  0  0  0  0
  7  1  1  0  0  0  0
  8 13  2  0  0  0  0
  9  8  1  0  0  0  0
  9 10  2  0  0  0  0
 10 11  1  0  0  0  0
 10 12  1  0  0  0  0
 12 17  2  0  0  0  0
 13 14  1  0  0  0  0
 15 16  1  0  0  0  0
 16 14  2  0  0  0  0
 17 13  1  0  0  0  0
 18 19  1  0  0  0  0
 18 28  1  0  0  0  0
 19 20  1  0  0  0  0
 19 21  1  0  0  0  0
 19 22  1  0  0  0  0
 23 18  2  0  0  0  0
 23 24  1  0  0  0  0
 24 25  2  0  0  0  0
 25 26  1  0  0  0  0
 25 27  1  0  0  0  0
 28 27  2  0  0  0  0
 29 26  1  0  0  0  0
 29 31  1  0  0  0  0
 30 31  2  0  0  0  0
 31  5  1  0  0  0  0
 32 29  2  0  0  0  0
M  END
> <ID>
SCHEMBL21138014

> <InChIKey>
GWKPHIATJBPVLJ-UHFFFAOYSA-N

> <MW>
445.418

> <Series_Name>
Series_12

$$$$
SCHEMBL21138015
  Mrv1719007171910252D 0   0.00000     0.00000     0

 30 33  0  0  1  0              1 V2000 
    7.7106   -2.7354    0.0000 C   0  0  0  0  0  0  0  0  0  0  0  0
    7.7276   -3.5586    0.0000 C   0  0  0  0  0  0  0  0  0  0  0  0
    8.4221   -1.4851    0.0000 C   0  0  0  0  0  0  0  0  0  0  0  0
    8.4170   -2.3307    0.0000 C   0  0  0  0  0  0  0  0  0  0  0  0
    9.1446   -1.0739    0.0000 C   0  0  0  0  0  0  0  0  0  0  0  0
    9.1237   -0.2642    0.0000 F   0  0  0  0  0  0  0  0  0  0  0  0
    9.8497   -1.4699    0.0000 C   0  0  0  0  0  0  0  0  0  0  0  0
    9.1515   -3.5466    0.0000 N   0  0  0  0  0  0  0  0  0  0  0  0
    9.1550   -2.7039    0.0000 C   0  0  0  0  0  0  0  0  0  0  0  0
    8.4369   -3.9579    0.0000 C   0  0  0  0  0  0  0  0  0  0  0  0
    9.8625   -2.2948    0.0000 C   0  0  0  0  0  0  0  0  0  0  0  0
    6.2656   -2.7555    0.0000 C   0  0  1  0  0  0  0  0  0  0  0  0
    5.5651   -2.3702    0.0000 C   0  0  0  0  0  0  0  0  0  0  0  0
    5.5215   -1.5438    0.0000 N   0  0  0  0  0  0  0  0  0  0  0  0
    6.9806   -2.3278    0.0000 C   0  0  2  0  0  0  0  0  0  0  0  0
    6.2465   -1.1124    0.0000 C   0  0  0  0  0  0  0  0  0  0  0  0
    6.9707   -1.4986    0.0000 C   0  0  0  0  0  0  0  0  0  0  0  0
    6.4881   -3.5813    0.0000 O   0  0  0  0  0  0  0  0  0  0  0  0
    1.2457   -2.4060    0.0000 C   0  0  0  0  0  0  0  0  0  0  0  0
    0.3964   -2.8482    0.0000 Cl  0  0  0  0  0  0  0  0  0  0  0  0
    1.2328   -1.5719    0.0000 C   0  0  0  0  0  0  0  0  0  0  0  0
    1.9332   -1.1915    0.0000 C   0  0  0  0  0  0  0  0  0  0  0  0
    2.6667   -1.5550    0.0000 C   0  0  0  0  0  0  0  0  0  0  0  0
    3.3797   -0.9179    0.0000 N   0  0  0  0  0  0  0  0  0  0  0  0
    2.6729   -2.3923    0.0000 C   0  0  0  0  0  0  0  0  0  0  0  0
    1.9559   -2.8041    0.0000 C   0  0  0  0  0  0  0  0  0  0  0  0
    4.1754   -1.5245    0.0000 C   0  0  0  0  0  0  0  0  0  0  0  0
    4.7463   -1.1605    0.0000 C   0  0  0  0  0  0  0  0  0  0  0  0
    4.7983   -0.3199    0.0000 O   0  0  0  0  0  0  0  0  0  0  0  0
    4.1029   -2.3783    0.0000 O   0  0  0  0  0  0  0  0  0  0  0  0
  1  2  2  0  0  0  0
  1  4  1  0  0  0  0
  2 10  1  0  0  0  0
  3  4  1  0  0  0  0
  3  5  2  0  0  0  0
  4  9  2  0  0  0  0
  5  6  1  0  0  0  0
  5  7  1  0  0  0  0
  7 11  2  0  0  0  0
  8  9  1  0  0  0  0
 10  8  2  0  0  0  0
 11  9  1  0  0  0  0
 12 13  1  0  0  0  0
 12 15  1  0  0  0  0
 12 18  1  1  0  0  0
 14 13  1  0  0  0  0
 14 16  1  0  0  0  0
 14 28  1  0  0  0  0
 15 17  1  0  0  0  0
 15  1  1  6  0  0  0
 16 17  1  0  0  0  0
 19 20  1  0  0  0  0
 19 26  1  0  0  0  0
 21 19  2  0  0  0  0
 21 22  1  0  0  0  0
 22 23  2  0  0  0  0
 23 24  1  0  0  0  0
 25 23  1  0  0  0  0
 26 25  2  0  0  0  0
 27 24  1  0  0  0  0
 27 28  1  0  0  0  0
 28 29  2  0  0  0  0
 30 27  2  0  0  0  0
M  END
> <ID>
SCHEMBL21138015

> <InChIKey>
GZSMNWZYUMDTHO-XLIONFOSSA-N

> <MW>
427.86

> <Series_Name>
Series_12

$$$$
SCHEMBL21138048
  Mrv1719007171910272D 0   0.00000     0.00000     0

 32 35  0  0  0  0              1 V2000 
    7.9802   -2.7594    0.0000 C   0  0  0  0  0  0  0  0  0  0  0  0
    7.9827   -3.5822    0.0000 C   0  0  0  0  0  0  0  0  0  0  0  0
    6.5476   -2.7569    0.0000 C   0  0  0  0  0  0  0  0  0  0  0  0
    5.8333   -2.3481    0.0000 C   0  0  0  0  0  0  0  0  0  0  0  0
    5.8245   -1.5116    0.0000 N   0  0  0  0  0  0  0  0  0  0  0  0
    7.2630   -2.3577    0.0000 C   0  0  0  0  0  0  0  0  0  0  0  0
    6.5581   -1.1130    0.0000 C   0  0  0  0  0  0  0  0  0  0  0  0
    7.2720   -1.5222    0.0000 C   0  0  0  0  0  0  0  0  0  0  0  0
    8.7038   -1.5076    0.0000 C   0  0  0  0  0  0  0  0  0  0  0  0
    8.6991   -2.3468    0.0000 C   0  0  0  0  0  0  0  0  0  0  0  0
    9.4198   -1.1172    0.0000 C   0  0  0  0  0  0  0  0  0  0  0  0
    9.4024   -0.2635    0.0000 F   0  0  0  0  0  0  0  0  0  0  0  0
   10.1261   -1.5104    0.0000 C   0  0  0  0  0  0  0  0  0  0  0  0
   10.1261   -2.3448    0.0000 C   0  0  0  0  0  0  0  0  0  0  0  0
    9.4024   -3.5779    0.0000 N   0  0  0  0  0  0  0  0  0  0  0  0
    9.4189   -2.7527    0.0000 C   0  0  0  0  0  0  0  0  0  0  0  0
    8.7008   -3.9898    0.0000 C   0  0  0  0  0  0  0  0  0  0  0  0
    1.5438   -2.3535    0.0000 C   0  0  0  0  0  0  0  0  0  0  0  0
    1.5453   -1.5148    0.0000 C   0  0  0  0  0  0  0  0  0  0  0  0
    1.0389   -1.3091    0.0000 C   0  0  0  0  0  0  0  0  0  0  0  0
    0.4975   -1.3842    0.0000 F   0  0  0  0  0  0  0  0  0  0  0  0
    0.8332   -1.8155    0.0000 F   0  0  0  0  0  0  0  0  0  0  0  0
    0.9638   -0.7677    0.0000 F   0  0  0  0  0  0  0  0  0  0  0  0
    2.2556   -1.1149    0.0000 C   0  0  0  0  0  0  0  0  0  0  0  0
    2.9756   -1.5232    0.0000 C   0  0  0  0  0  0  0  0  0  0  0  0
    3.6750   -0.8529    0.0000 N   0  0  0  0  0  0  0  0  0  0  0  0
    2.9729   -2.3482    0.0000 C   0  0  0  0  0  0  0  0  0  0  0  0
    2.2514   -2.7566    0.0000 C   0  0  0  0  0  0  0  0  0  0  0  0
    4.3304   -1.4897    0.0000 C   0  0  0  0  0  0  0  0  0  0  0  0
    5.1919   -1.1462    0.0000 C   0  0  0  0  0  0  0  0  0  0  0  0
    5.1034   -0.2635    0.0000 O   0  0  0  0  0  0  0  0  0  0  0  0
    4.3822   -2.3298    0.0000 O   0  0  0  0  0  0  0  0  0  0  0  0
  1  2  2  0  0  0  0
  1 10  1  0  0  0  0
  2 17  1  0  0  0  0
  3  4  1  0  0  0  0
  3  6  1  0  0  0  0
  4  5  1  0  0  0  0
  6  1  1  0  0  0  0
  7  5  1  0  0  0  0
  7  8  1  0  0  0  0
  8  6  1  0  0  0  0
  9 10  1  0  0  0  0
  9 11  2  0  0  0  0
 10 16  2  0  0  0  0
 11 12  1  0  0  0  0
 11 13  1  0  0  0  0
 13 14  2  0  0  0  0
 15 16  1  0  0  0  0
 16 14  1  0  0  0  0
 17 15  2  0  0  0  0
 18 19  2  0  0  0  0
 18 28  1  0  0  0  0
 19 20  1  0  0  0  0
 19 24  1  0  0  0  0
 20 21  1  0  0  0  0
 20 22  1  0  0  0  0
 20 23  1  0  0  0  0
 24 25  2  0  0  0  0
 25 26  1  0  0  0  0
 26 29  1  0  0  0  0
 27 25  1  0  0  0  0
 28 27  2  0  0  0  0
 29 32  2  0  0  0  0
 30 29  1  0  0  0  0
 30  5  1  0  0  0  0
 31 30  2  0  0  0  0
M  END
> <ID>
SCHEMBL21138048

> <InChIKey>
FORCCHAQCLQMDT-UHFFFAOYSA-N

> <MW>
445.418

> <Series_Name>
Series_12

$$$$
SCHEMBL21138049
  Mrv1719007171910272D 0   0.00000     0.00000     0

 33 36  0  0  0  0              1 V2000 
    7.9997   -2.7660    0.0000 C   0  0  0  0  0  0  0  0  0  0  0  0
    8.0022   -3.6052    0.0000 C   0  0  0  0  0  0  0  0  0  0  0  0
    6.5636   -2.7636    0.0000 C   0  0  0  0  0  0  0  0  0  0  0  0
    5.8476   -2.3538    0.0000 C   0  0  0  0  0  0  0  0  0  0  0  0
    5.8387   -1.5153    0.0000 N   0  0  0  0  0  0  0  0  0  0  0  0
    7.2807   -2.3635    0.0000 C   0  0  0  0  0  0  0  0  0  0  0  0
    6.5954   -1.1330    0.0000 C   0  0  0  0  0  0  0  0  0  0  0  0
    7.2897   -1.5259    0.0000 C   0  0  0  0  0  0  0  0  0  0  0  0
    8.7251   -1.5249    0.0000 C   0  0  0  0  0  0  0  0  0  0  0  0
    8.7359   -2.3666    0.0000 C   0  0  0  0  0  0  0  0  0  0  0  0
    9.4231   -1.1285    0.0000 C   0  0  0  0  0  0  0  0  0  0  0  0
    9.4254   -0.2642    0.0000 F   0  0  0  0  0  0  0  0  0  0  0  0
   10.1534   -1.5246    0.0000 C   0  0  0  0  0  0  0  0  0  0  0  0
   10.1509   -2.3505    0.0000 C   0  0  0  0  0  0  0  0  0  0  0  0
    9.4254   -3.5867    0.0000 N   0  0  0  0  0  0  0  0  0  0  0  0
    9.4419   -2.7594    0.0000 C   0  0  0  0  0  0  0  0  0  0  0  0
    8.7217   -3.9996    0.0000 C   0  0  0  0  0  0  0  0  0  0  0  0
    1.5496   -2.3637    0.0000 C   0  0  0  0  0  0  0  0  0  0  0  0
    1.0352   -2.5569    0.0000 C   0  0  0  0  0  0  0  0  0  0  0  0
    0.6862   -2.9815    0.0000 F   0  0  0  0  0  0  0  0  0  0  0  0
    1.2284   -3.0714    0.0000 F   0  0  0  0  0  0  0  0  0  0  0  0
    0.6106   -2.2080    0.0000 F   0  0  0  0  0  0  0  0  0  0  0  0
    1.5475   -1.5191    0.0000 C   0  0  0  0  0  0  0  0  0  0  0  0
    2.2398   -1.1316    0.0000 C   0  0  0  0  0  0  0  0  0  0  0  0
    2.2521   -0.2781    0.0000 F   0  0  0  0  0  0  0  0  0  0  0  0
    2.9938   -1.5091    0.0000 C   0  0  0  0  0  0  0  0  0  0  0  0
    3.6840   -0.8619    0.0000 N   0  0  0  0  0  0  0  0  0  0  0  0
    2.9802   -2.3540    0.0000 C   0  0  0  0  0  0  0  0  0  0  0  0
    2.2570   -2.7633    0.0000 C   0  0  0  0  0  0  0  0  0  0  0  0
    4.3544   -1.5022    0.0000 C   0  0  0  0  0  0  0  0  0  0  0  0
    5.0724   -1.1435    0.0000 C   0  0  0  0  0  0  0  0  0  0  0  0
    4.4068   -2.3355    0.0000 O   0  0  0  0  0  0  0  0  0  0  0  0
    5.1158   -0.2642    0.0000 O   0  0  0  0  0  0  0  0  0  0  0  0
  1  2  2  0  0  0  0
  1 10  1  0  0  0  0
  2 17  1  0  0  0  0
  3  4  1  0  0  0  0
  3  6  1  0  0  0  0
  4  5  1  0  0  0  0
  5  7  1  0  0  0  0
  5 31  1  0  0  0  0
  6  1  1  0  0  0  0
  7  8  1  0  0  0  0
  8  6  1  0  0  0  0
  9 10  1  0  0  0  0
  9 11  2  0  0  0  0
 10 16  2  0  0  0  0
 11 12  1  0  0  0  0
 13 11  1  0  0  0  0
 14 13  2  0  0  0  0
 15 16  1  0  0  0  0
 16 14  1  0  0  0  0
 17 15  2  0  0  0  0
 18 19  1  0  0  0  0
 18 29  1  0  0  0  0
 19 20  1  0  0  0  0
 19 21  1  0  0  0  0
 19 22  1  0  0  0  0
 23 18  2  0  0  0  0
 23 24  1  0  0  0  0
 24 26  2  0  0  0  0
 25 24  1  0  0  0  0
 26 27  1  0  0  0  0
 27 30  1  0  0  0  0
 28 26  1  0  0  0  0
 29 28  2  0  0  0  0
 30 31  1  0  0  0  0
 30 32  2  0  0  0  0
 31 33  2  0  0  0  0
M  END
> <ID>
SCHEMBL21138049

> <InChIKey>
XYPKLCLPQBHOHK-UHFFFAOYSA-N

> <MW>
463.408

> <Series_Name>
Series_12

$$$$
SCHEMBL21138068
  Mrv1719007171910292D 0   0.00000     0.00000     0

 30 33  0  0  0  0              1 V2000 
    7.7321   -3.5861    0.0000 C   0  0  0  0  0  0  0  0  0  0  0  0
    7.7433   -2.7600    0.0000 C   0  0  0  0  0  0  0  0  0  0  0  0
    7.0280   -2.3368    0.0000 C   0  0  0  0  0  0  0  0  0  0  0  0
    6.3174   -2.7447    0.0000 C   0  0  0  0  0  0  0  0  0  0  0  0
    5.5839   -2.3244    0.0000 C   0  0  0  0  0  0  0  0  0  0  0  0
    5.5719   -1.5076    0.0000 N   0  0  0  0  0  0  0  0  0  0  0  0
    6.3105   -1.1135    0.0000 C   0  0  0  0  0  0  0  0  0  0  0  0
    7.0417   -1.5179    0.0000 C   0  0  0  0  0  0  0  0  0  0  0  0
    8.4783   -2.3580    0.0000 C   0  0  0  0  0  0  0  0  0  0  0  0
    9.2005   -1.1397    0.0000 C   0  0  0  0  0  0  0  0  0  0  0  0
    9.3398   -0.6100    0.0000 C   0  0  0  0  0  0  0  0  0  0  0  0
    9.4790   -0.0803    0.0000 N   0  0  0  0  0  0  0  0  0  0  0  0
    9.1888   -2.7773    0.0000 C   0  0  0  0  0  0  0  0  0  0  0  0
    9.9070   -2.3829    0.0000 C   0  0  0  0  0  0  0  0  0  0  0  0
    9.1634   -3.6062    0.0000 N   0  0  0  0  0  0  0  0  0  0  0  0
    8.4168   -3.9882    0.0000 C   0  0  0  0  0  0  0  0  0  0  0  0
    9.9209   -1.5526    0.0000 C   0  0  0  0  0  0  0  0  0  0  0  0
    8.4972   -1.5275    0.0000 C   0  0  0  0  0  0  0  0  0  0  0  0
    0.3916   -2.6581    0.0000 Cl  0  0  0  0  0  0  0  0  0  0  0  0
    1.2630   -2.2630    0.0000 C   0  0  0  0  0  0  0  0  0  0  0  0
    1.2841   -1.4385    0.0000 C   0  0  0  0  0  0  0  0  0  0  0  0
    1.9960   -1.0503    0.0000 C   0  0  0  0  0  0  0  0  0  0  0  0
    2.7148   -1.4616    0.0000 C   0  0  0  0  0  0  0  0  0  0  0  0
    3.4215   -0.8425    0.0000 N   0  0  0  0  0  0  0  0  0  0  0  0
    2.6954   -2.2811    0.0000 C   0  0  0  0  0  0  0  0  0  0  0  0
    1.9533   -2.6755    0.0000 C   0  0  0  0  0  0  0  0  0  0  0  0
    4.2303   -1.4661    0.0000 C   0  0  0  0  0  0  0  0  0  0  0  0
    4.9177   -1.1012    0.0000 C   0  0  0  0  0  0  0  0  0  0  0  0
    4.8773   -0.2660    0.0000 O   0  0  0  0  0  0  0  0  0  0  0  0
    4.1235   -2.3056    0.0000 O   0  0  0  0  0  0  0  0  0  0  0  0
  1  2  2  0  0  0  0
  1 16  1  0  0  0  0
  2  3  1  0  0  0  0
  2  9  1  0  0  0  0
  3  4  1  0  0  0  0
  4  5  1  0  0  0  0
  5  6  1  0  0  0  0
  6  7  1  0  0  0  0
  7  8  1  0  0  0  0
  8  3  1  0  0  0  0
  9 13  2  0  0  0  0
 10 11  1  0  0  0  0
 10 17  1  0  0  0  0
 11 12  3  0  0  0  0
 13 14  1  0  0  0  0
 13 15  1  0  0  0  0
 14 17  2  0  0  0  0
 16 15  2  0  0  0  0
 18 10  2  0  0  0  0
 18  9  1  0  0  0  0
 19 20  1  0  0  0  0
 20 21  2  0  0  0  0
 21 22  1  0  0  0  0
 22 23  2  0  0  0  0
 23 24  1  0  0  0  0
 25 23  1  0  0  0  0
 26 25  2  0  0  0  0
 26 20  1  0  0  0  0
 27 24  1  0  0  0  0
 27 28  1  0  0  0  0
 28  6  1  0  0  0  0
 29 28  2  0  0  0  0
 30 27  2  0  0  0  0
M  END
> <ID>
SCHEMBL21138068

> <InChIKey>
ITAJPBIHARGEQO-UHFFFAOYSA-N

> <MW>
418.88

> <Series_Name>
Series_12

$$$$
SCHEMBL21138077
  Mrv1719007171910292D 0   0.00000     0.00000     0

 30 33  0  0  1  0              1 V2000 
    7.6748   -3.5888    0.0000 C   0  0  0  0  0  0  0  0  0  0  0  0
    7.7585   -2.7758    0.0000 C   0  0  0  0  0  0  0  0  0  0  0  0
    6.9591   -2.3471    0.0000 C   0  0  1  0  0  0  0  0  0  0  0  0
    6.2375   -2.7562    0.0000 C   0  0  1  0  0  0  0  0  0  0  0  0
    6.4459   -3.5987    0.0000 O   0  0  0  0  0  0  0  0  0  0  0  0
    5.5303   -2.3473    0.0000 C   0  0  0  0  0  0  0  0  0  0  0  0
    5.5153   -1.5167    0.0000 N   0  0  0  0  0  0  0  0  0  0  0  0
    6.2413   -1.0939    0.0000 C   0  0  0  0  0  0  0  0  0  0  0  0
    6.9543   -1.4985    0.0000 C   0  0  0  0  0  0  0  0  0  0  0  0
    8.3918   -1.4985    0.0000 C   0  0  0  0  0  0  0  0  0  0  0  0
    8.3800   -2.3463    0.0000 C   0  0  0  0  0  0  0  0  0  0  0  0
    9.0848   -1.1095    0.0000 C   0  0  0  0  0  0  0  0  0  0  0  0
    9.1001   -0.2620    0.0000 F   0  0  0  0  0  0  0  0  0  0  0  0
    9.8275   -1.5077    0.0000 C   0  0  0  0  0  0  0  0  0  0  0  0
    9.8197   -2.3303    0.0000 C   0  0  0  0  0  0  0  0  0  0  0  0
    9.1007   -2.7460    0.0000 C   0  0  0  0  0  0  0  0  0  0  0  0
    9.0863   -3.5987    0.0000 N   0  0  0  0  0  0  0  0  0  0  0  0
    8.3751   -3.9944    0.0000 C   0  0  0  0  0  0  0  0  0  0  0  0
    0.3750   -2.7610    0.0000 Cl  0  0  0  0  0  0  0  0  0  0  0  0
    1.2330   -2.3459    0.0000 C   0  0  0  0  0  0  0  0  0  0  0  0
    1.2358   -1.4986    0.0000 C   0  0  0  0  0  0  0  0  0  0  0  0
    1.9529   -1.0922    0.0000 C   0  0  0  0  0  0  0  0  0  0  0  0
    2.6693   -1.5013    0.0000 C   0  0  0  0  0  0  0  0  0  0  0  0
    3.3643   -0.8618    0.0000 N   0  0  0  0  0  0  0  0  0  0  0  0
    2.6487   -2.3494    0.0000 C   0  0  0  0  0  0  0  0  0  0  0  0
    1.9523   -2.7505    0.0000 C   0  0  0  0  0  0  0  0  0  0  0  0
    4.1691   -1.4760    0.0000 C   0  0  0  0  0  0  0  0  0  0  0  0
    4.7329   -1.1242    0.0000 C   0  0  0  0  0  0  0  0  0  0  0  0
    4.7983   -0.2620    0.0000 O   0  0  0  0  0  0  0  0  0  0  0  0
    4.0813   -2.3440    0.0000 O   0  0  0  0  0  0  0  0  0  0  0  0
  1  2  2  0  0  0  0
  1 18  1  0  0  0  0
  2 11  1  0  0  0  0
  3  2  1  1  0  0  0
  3  4  1  0  0  0  0
  4  5  1  1  0  0  0
  6  7  1  0  0  0  0
  4  6  1  0  0  0  0
  7 28  1  0  0  0  0
  8  7  1  0  0  0  0
  8  9  1  0  0  0  0
  3  9  1  0  0  0  0
 10 11  1  0  0  0  0
 10 12  2  0  0  0  0
 11 16  2  0  0  0  0
 12 13  1  0  0  0  0
 14 12  1  0  0  0  0
 15 14  2  0  0  0  0
 16 17  1  0  0  0  0
 16 15  1  0  0  0  0
 18 17  2  0  0  0  0
 19 20  1  0  0  0  0
 20 21  2  0  0  0  0
 20 26  1  0  0  0  0
 21 22  1  0  0  0  0
 22 23  2  0  0  0  0
 23 24  1  0  0  0  0
 25 23  1  0  0  0  0
 26 25  2  0  0  0  0
 27 24  1  0  0  0  0
 27 28  1  0  0  0  0
 28 29  2  0  0  0  0
 30 27  2  0  0  0  0
M  END
> <ID>
SCHEMBL21138077

> <InChIKey>
GZSMNWZYUMDTHO-PXNSSMCTSA-N

> <MW>
427.86

> <Series_Name>
Series_12

$$$$
SCHEMBL21138088
  Mrv1719007171910302D 0   0.00000     0.00000     0

 31 34  0  0  1  0              1 V2000 
    7.5829   -2.7793    0.0000 C   0  0  0  0  0  0  0  0  0  0  0  0
    7.5858   -3.6371    0.0000 C   0  0  0  0  0  0  0  0  0  0  0  0
    8.3017   -2.3630    0.0000 C   0  0  0  0  0  0  0  0  0  0  0  0
    8.9981   -1.0981    0.0000 C   0  0  0  0  0  0  0  0  0  0  0  0
    9.0039   -0.2703    0.0000 F   0  0  0  0  0  0  0  0  0  0  0  0
    9.7035   -1.5203    0.0000 C   0  0  0  0  0  0  0  0  0  0  0  0
    9.7035   -2.3628    0.0000 C   0  0  0  0  0  0  0  0  0  0  0  0
    8.9999   -2.7849    0.0000 C   0  0  0  0  0  0  0  0  0  0  0  0
    8.9896   -3.6271    0.0000 N   0  0  0  0  0  0  0  0  0  0  0  0
    8.2778   -4.0351    0.0000 C   0  0  0  0  0  0  0  0  0  0  0  0
    8.3041   -1.5141    0.0000 C   0  0  0  0  0  0  0  0  0  0  0  0
    6.1643   -2.7875    0.0000 C   0  0  1  0  0  0  0  0  0  0  0  0
    5.4660   -2.3707    0.0000 C   0  0  0  0  0  0  0  0  0  0  0  0
    5.4478   -1.5362    0.0000 N   0  0  0  0  0  0  0  0  0  0  0  0
    6.8690   -2.3586    0.0000 C   0  0  2  0  0  0  0  0  0  0  0  0
    6.1645   -1.1143    0.0000 C   0  0  0  0  0  0  0  0  0  0  0  0
    6.8756   -1.5175    0.0000 C   0  0  0  0  0  0  0  0  0  0  0  0
    6.4021   -3.2812    0.0000 O   0  0  0  0  0  0  0  0  0  0  0  0
    6.9486   -3.3222    0.0000 C   0  0  0  0  0  0  0  0  0  0  0  0
    0.3939   -2.7915    0.0000 Cl  0  0  0  0  0  0  0  0  0  0  0  0
    1.2293   -2.3632    0.0000 C   0  0  0  0  0  0  0  0  0  0  0  0
    1.2322   -1.5183    0.0000 C   0  0  0  0  0  0  0  0  0  0  0  0
    1.9405   -1.1170    0.0000 C   0  0  0  0  0  0  0  0  0  0  0  0
    2.6482   -1.5183    0.0000 C   0  0  0  0  0  0  0  0  0  0  0  0
    3.3355   -0.8677    0.0000 N   0  0  0  0  0  0  0  0  0  0  0  0
    2.6560   -2.3557    0.0000 C   0  0  0  0  0  0  0  0  0  0  0  0
    1.9416   -2.7793    0.0000 C   0  0  0  0  0  0  0  0  0  0  0  0
    4.0060   -1.5004    0.0000 C   0  0  0  0  0  0  0  0  0  0  0  0
    4.6834   -1.1457    0.0000 C   0  0  0  0  0  0  0  0  0  0  0  0
    4.7509   -0.2703    0.0000 O   0  0  0  0  0  0  0  0  0  0  0  0
    4.0396   -2.3755    0.0000 O   0  0  0  0  0  0  0  0  0  0  0  0
  1  2  2  0  0  0  0
  1  3  1  0  0  0  0
  2 10  1  0  0  0  0
  3  8  2  0  0  0  0
  4  5  1  0  0  0  0
  4  6  1  0  0  0  0
  6  7  2  0  0  0  0
  8  9  1  0  0  0  0
  8  7  1  0  0  0  0
 10  9  2  0  0  0  0
 11  4  2  0  0  0  0
 11  3  1  0  0  0  0
 12 13  1  0  0  0  0
 12 15  1  0  0  0  0
 12 18  1  1  0  0  0
 13 14  1  0  0  0  0
 14 16  1  0  0  0  0
 14 29  1  0  0  0  0
 15  1  1  6  0  0  0
 16 17  1  0  0  0  0
 15 17  1  0  0  0  0
 18 19  1  0  0  0  0
 20 21  1  0  0  0  0
 21 22  2  0  0  0  0
 21 27  1  0  0  0  0
 22 23  1  0  0  0  0
 23 24  2  0  0  0  0
 24 25  1  0  0  0  0
 24 26  1  0  0  0  0
 25 28  1  0  0  0  0
 27 26  2  0  0  0  0
 28 31  2  0  0  0  0
 29 30  2  0  0  0  0
 29 28  1  0  0  0  0
M  END
> <ID>
SCHEMBL21138088

> <InChIKey>
UPGHPDOEFAMFQB-NQIIRXRSSA-N

> <MW>
441.89

> <Series_Name>
Series_12

$$$$
SCHEMBL21138096
  Mrv1719007171910322D 0   0.00000     0.00000     0

 34 37  0  0  0  0              1 V2000 
    9.4407   -2.7178    0.0000 C   0  0  0  0  0  0  0  0  0  0  0  0
    9.4485   -3.5422    0.0000 C   0  0  0  0  0  0  0  0  0  0  0  0
    8.7383   -2.3042    0.0000 C   0  0  0  0  0  0  0  0  0  0  0  0
    8.0188   -2.7079    0.0000 C   0  0  0  0  0  0  0  0  0  0  0  0
    7.2966   -2.3132    0.0000 C   0  0  0  0  0  0  0  0  0  0  0  0
    7.2761   -1.4985    0.0000 N   0  0  0  0  0  0  0  0  0  0  0  0
    8.0057   -1.0820    0.0000 C   0  0  0  0  0  0  0  0  0  0  0  0
    8.7340   -1.4785    0.0000 C   0  0  0  0  0  0  0  0  0  0  0  0
   10.1745   -1.4793    0.0000 C   0  0  0  0  0  0  0  0  0  0  0  0
   10.1692   -2.3055    0.0000 C   0  0  0  0  0  0  0  0  0  0  0  0
   10.8944   -1.0726    0.0000 C   0  0  0  0  0  0  0  0  0  0  0  0
   10.8755   -0.2626    0.0000 F   0  0  0  0  0  0  0  0  0  0  0  0
   11.6045   -2.3032    0.0000 C   0  0  0  0  0  0  0  0  0  0  0  0
   11.6116   -1.4846    0.0000 C   0  0  0  0  0  0  0  0  0  0  0  0
   10.8755   -3.5376    0.0000 N   0  0  0  0  0  0  0  0  0  0  0  0
   10.8934   -2.7111    0.0000 C   0  0  0  0  0  0  0  0  0  0  0  0
   10.1652   -3.9353    0.0000 C   0  0  0  0  0  0  0  0  0  0  0  0
    2.2554   -2.7343    0.0000 O   0  0  0  0  0  0  0  0  0  0  0  0
    2.9877   -2.3035    0.0000 C   0  0  0  0  0  0  0  0  0  0  0  0
    2.9912   -1.4785    0.0000 C   0  0  0  0  0  0  0  0  0  0  0  0
    3.7020   -1.0845    0.0000 C   0  0  0  0  0  0  0  0  0  0  0  0
    4.4272   -1.4814    0.0000 C   0  0  0  0  0  0  0  0  0  0  0  0
    5.1288   -0.8497    0.0000 N   0  0  0  0  0  0  0  0  0  0  0  0
    4.4240   -2.3070    0.0000 C   0  0  0  0  0  0  0  0  0  0  0  0
    3.6974   -2.7155    0.0000 C   0  0  0  0  0  0  0  0  0  0  0  0
    1.5493   -2.3096    0.0000 C   0  0  0  0  0  0  0  0  0  0  0  0
    1.0412   -2.5097    0.0000 C   0  0  0  0  0  0  0  0  0  0  0  0
    0.7013   -2.9369    0.0000 F   0  0  0  0  0  0  0  0  0  0  0  0
    1.2413   -3.0177    0.0000 F   0  0  0  0  0  0  0  0  0  0  0  0
    0.6139   -2.1696    0.0000 F   0  0  0  0  0  0  0  0  0  0  0  0
    5.9382   -1.4589    0.0000 C   0  0  0  0  0  0  0  0  0  0  0  0
    6.5655   -0.2781    0.0000 O   0  0  0  0  0  0  0  0  0  0  0  0
    6.6068   -1.0983    0.0000 C   0  0  0  0  0  0  0  0  0  0  0  0
    5.8394   -2.3018    0.0000 O   0  0  0  0  0  0  0  0  0  0  0  0
  1  2  2  0  0  0  0
  1 10  1  0  0  0  0
  2 17  1  0  0  0  0
  3  1  1  0  0  0  0
  4  5  1  0  0  0  0
  4  3  1  0  0  0  0
  5  6  1  0  0  0  0
  6  7  1  0  0  0  0
  7  8  1  0  0  0  0
  8  3  1  0  0  0  0
  9 10  1  0  0  0  0
  9 11  2  0  0  0  0
 10 16  2  0  0  0  0
 11 12  1  0  0  0  0
 13 14  2  0  0  0  0
 14 11  1  0  0  0  0
 15 16  1  0  0  0  0
 16 13  1  0  0  0  0
 17 15  2  0  0  0  0
 18 19  1  0  0  0  0
 19 20  2  0  0  0  0
 19 25  1  0  0  0  0
 20 21  1  0  0  0  0
 21 22  2  0  0  0  0
 22 23  1  0  0  0  0
 24 22  1  0  0  0  0
 25 24  2  0  0  0  0
 26 18  1  0  0  0  0
 26 27  1  0  0  0  0
 27 28  1  0  0  0  0
 27 29  1  0  0  0  0
 27 30  1  0  0  0  0
 31 23  1  0  0  0  0
 31 33  1  0  0  0  0
 32 33  2  0  0  0  0
 33  6  1  0  0  0  0
 34 31  2  0  0  0  0
M  END
> <ID>
SCHEMBL21138096

> <InChIKey>
DTAMWIYHUBMONV-UHFFFAOYSA-N

> <MW>
475.444

> <Series_Name>
Series_12

$$$$
SCHEMBL21138097
  Mrv1719007171910322D 0   0.00000     0.00000     0

 32 35  0  0  0  0              1 V2000 
    6.9625   -2.9652    0.0000 C   0  0  0  0  0  0  0  0  0  0  0  0
    7.6735   -3.3685    0.0000 C   0  0  0  0  0  0  0  0  0  0  0  0
    6.2375   -3.3711    0.0000 C   0  0  0  0  0  0  0  0  0  0  0  0
    5.5265   -2.9678    0.0000 C   0  0  0  0  0  0  0  0  0  0  0  0
    5.5025   -2.1570    0.0000 N   0  0  0  0  0  0  0  0  0  0  0  0
    6.2392   -1.7302    0.0000 C   0  0  0  0  0  0  0  0  0  0  0  0
    6.9606   -2.1373    0.0000 C   0  0  0  0  0  0  0  0  0  0  0  0
    8.3846   -2.9632    0.0000 C   0  0  0  0  0  0  0  0  0  0  0  0
    8.3904   -2.1426    0.0000 C   0  0  0  0  0  0  0  0  0  0  0  0
    9.1051   -1.7331    0.0000 C   0  0  0  0  0  0  0  0  0  0  0  0
    9.1057   -0.9076    0.0000 C   0  0  0  0  0  0  0  0  0  0  0  0
    8.3822   -0.4908    0.0000 C   0  0  0  0  0  0  0  0  0  0  0  0
    9.1052   -0.0807    0.0000 C   0  0  0  0  0  0  0  0  0  0  0  0
   10.0146   -0.5063    0.0000 O   0  0  0  0  0  0  0  0  0  0  0  0
    9.8275   -2.1475    0.0000 C   0  0  0  0  0  0  0  0  0  0  0  0
    9.8192   -2.9637    0.0000 C   0  0  0  0  0  0  0  0  0  0  0  0
    9.1043   -3.3715    0.0000 C   0  0  0  0  0  0  0  0  0  0  0  0
    9.0828   -4.1965    0.0000 N   0  0  0  0  0  0  0  0  0  0  0  0
    7.6838   -4.2055    0.0000 C   0  0  0  0  0  0  0  0  0  0  0  0
    8.3859   -4.5959    0.0000 C   0  0  0  0  0  0  0  0  0  0  0  0
    0.3917   -3.3749    0.0000 Cl  0  0  0  0  0  0  0  0  0  0  0  0
    1.2390   -2.9656    0.0000 C   0  0  0  0  0  0  0  0  0  0  0  0
    1.2417   -2.1386    0.0000 C   0  0  0  0  0  0  0  0  0  0  0  0
    1.9610   -1.7346    0.0000 C   0  0  0  0  0  0  0  0  0  0  0  0
    2.6767   -2.1429    0.0000 C   0  0  0  0  0  0  0  0  0  0  0  0
    3.3749   -1.5114    0.0000 N   0  0  0  0  0  0  0  0  0  0  0  0
    2.6760   -2.9677    0.0000 C   0  0  0  0  0  0  0  0  0  0  0  0
    1.9565   -3.3714    0.0000 C   0  0  0  0  0  0  0  0  0  0  0  0
    4.1728   -2.1190    0.0000 C   0  0  0  0  0  0  0  0  0  0  0  0
    4.7982   -0.9244    0.0000 O   0  0  0  0  0  0  0  0  0  0  0  0
    4.8615   -1.7588    0.0000 C   0  0  0  0  0  0  0  0  0  0  0  0
    4.0938   -2.9640    0.0000 O   0  0  0  0  0  0  0  0  0  0  0  0
  1  2  1  0  0  0  0
  2  8  1  0  0  0  0
  2 19  2  0  0  0  0
  3  4  1  0  0  0  0
  3  1  1  0  0  0  0
  4  5  1  0  0  0  0
  5  6  1  0  0  0  0
  6  7  1  0  0  0  0
  7  1  1  0  0  0  0
  8 17  2  0  0  0  0
  9  8  1  0  0  0  0
  9 10  2  0  0  0  0
 10 11  1  0  0  0  0
 10 15  1  0  0  0  0
 11 12  1  0  0  0  0
 13 11  1  0  0  0  0
 14 11  1  0  0  0  0
 16 15  2  0  0  0  0
 17 18  1  0  0  0  0
 17 16  1  0  0  0  0
 19 20  1  0  0  0  0
 20 18  2  0  0  0  0
 21 22  1  0  0  0  0
 22 23  2  0  0  0  0
 22 28  1  0  0  0  0
 23 24  1  0  0  0  0
 24 25  2  0  0  0  0
 25 26  1  0  0  0  0
 27 25  1  0  0  0  0
 28 27  2  0  0  0  0
 29 26  1  0  0  0  0
 29 31  1  0  0  0  0
 30 31  2  0  0  0  0
 31  5  1  0  0  0  0
 32 29  2  0  0  0  0
M  END
> <ID>
SCHEMBL21138097

> <InChIKey>
HWIVOMARSSPPMY-UHFFFAOYSA-N

> <MW>
451.95

> <Series_Name>
Series_12

$$$$
SCHEMBL21138098
  Mrv1719007171910322D 0   0.00000     0.00000     0

 32 35  0  0  0  0              1 V2000 
    8.0438   -2.3226    0.0000 C   0  0  0  0  0  0  0  0  0  0  0  0
    8.7582   -2.7192    0.0000 C   0  0  0  0  0  0  0  0  0  0  0  0
    7.3205   -2.7195    0.0000 C   0  0  0  0  0  0  0  0  0  0  0  0
    6.6177   -2.3265    0.0000 C   0  0  0  0  0  0  0  0  0  0  0  0
    6.5965   -1.5064    0.0000 N   0  0  0  0  0  0  0  0  0  0  0  0
    7.3213   -1.0811    0.0000 C   0  0  0  0  0  0  0  0  0  0  0  0
    8.0511   -1.4960    0.0000 C   0  0  0  0  0  0  0  0  0  0  0  0
    9.4718   -2.3233    0.0000 C   0  0  0  0  0  0  0  0  0  0  0  0
    9.4764   -1.4805    0.0000 C   0  0  0  0  0  0  0  0  0  0  0  0
   10.1881   -1.0818    0.0000 C   0  0  0  0  0  0  0  0  0  0  0  0
   10.1802   -0.2696    0.0000 F   0  0  0  0  0  0  0  0  0  0  0  0
   10.9054   -1.4959    0.0000 C   0  0  0  0  0  0  0  0  0  0  0  0
   10.9032   -2.3093    0.0000 C   0  0  0  0  0  0  0  0  0  0  0  0
   10.1644   -3.5519    0.0000 N   0  0  0  0  0  0  0  0  0  0  0  0
   10.1829   -2.7194    0.0000 C   0  0  0  0  0  0  0  0  0  0  0  0
    8.7630   -3.5634    0.0000 C   0  0  0  0  0  0  0  0  0  0  0  0
    9.4623   -3.9609    0.0000 C   0  0  0  0  0  0  0  0  0  0  0  0
    1.6016   -2.7274    0.0000 S   0  0  0  0  0  0  0  0  0  0  0  0
    1.6174   -3.5519    0.0000 O   0  0  0  0  0  0  0  0  0  0  0  0
    2.3349   -2.3292    0.0000 C   0  0  0  0  0  0  0  0  0  0  0  0
    2.3409   -1.4858    0.0000 C   0  0  0  0  0  0  0  0  0  0  0  0
    3.0800   -1.0981    0.0000 C   0  0  0  0  0  0  0  0  0  0  0  0
    3.7674   -1.4886    0.0000 C   0  0  0  0  0  0  0  0  0  0  0  0
    4.4558   -0.8563    0.0000 N   0  0  0  0  0  0  0  0  0  0  0  0
    3.7641   -2.3201    0.0000 C   0  0  0  0  0  0  0  0  0  0  0  0
    3.0541   -2.7184    0.0000 C   0  0  0  0  0  0  0  0  0  0  0  0
    1.6016   -1.9028    0.0000 O   0  0  0  0  0  0  0  0  0  0  0  0
    5.1358   -1.4711    0.0000 C   0  0  0  0  0  0  0  0  0  0  0  0
    5.9374   -1.1054    0.0000 C   0  0  0  0  0  0  0  0  0  0  0  0
    5.8829   -0.2696    0.0000 O   0  0  0  0  0  0  0  0  0  0  0  0
    5.1694   -2.3151    0.0000 O   0  0  0  0  0  0  0  0  0  0  0  0
    0.5629   -2.3310    0.0000 N   0  0  0  0  0  0  0  0  0  0  0  0
  1  2  1  0  0  0  0
  2 16  2  0  0  0  0
  3  4  1  0  0  0  0
  3  1  1  0  0  0  0
  4  5  1  0  0  0  0
  6  5  1  0  0  0  0
  6  7  1  0  0  0  0
  7  1  1  0  0  0  0
  8  2  1  0  0  0  0
  8 15  2  0  0  0  0
  9 10  2  0  0  0  0
  9  8  1  0  0  0  0
 10 11  1  0  0  0  0
 12 10  1  0  0  0  0
 13 12  2  0  0  0  0
 14 15  1  0  0  0  0
 15 13  1  0  0  0  0
 16 17  1  0  0  0  0
 17 14  2  0  0  0  0
 18 19  2  0  0  0  0
 18 20  1  0  0  0  0
 18 32  1  0  0  0  0
 20 21  2  0  0  0  0
 20 26  1  0  0  0  0
 21 22  1  0  0  0  0
 22 23  2  0  0  0  0
 23 24  1  0  0  0  0
 24 28  1  0  0  0  0
 25 23  1  0  0  0  0
 26 25  2  0  0  0  0
 27 18  2  0  0  0  0
 28 31  2  0  0  0  0
 29 28  1  0  0  0  0
 29  5  1  0  0  0  0
 30 29  2  0  0  0  0
M  END
> <ID>
SCHEMBL21138098

> <InChIKey>
KFLGEVOHARUUKM-UHFFFAOYSA-N

> <MW>
456.49

> <Series_Name>
Series_12

$$$$
SCHEMBL21138099
  Mrv1719007171910322D 0   0.00000     0.00000     0

 31 34  0  0  0  0              1 V2000 
    8.0284   -2.3181    0.0000 C   0  0  0  0  0  0  0  0  0  0  0  0
    8.7414   -2.7140    0.0000 C   0  0  0  0  0  0  0  0  0  0  0  0
    7.3064   -2.7142    0.0000 C   0  0  0  0  0  0  0  0  0  0  0  0
    6.6050   -2.3220    0.0000 C   0  0  0  0  0  0  0  0  0  0  0  0
    6.5839   -1.5035    0.0000 N   0  0  0  0  0  0  0  0  0  0  0  0
    7.3073   -1.0790    0.0000 C   0  0  0  0  0  0  0  0  0  0  0  0
    8.0356   -1.4931    0.0000 C   0  0  0  0  0  0  0  0  0  0  0  0
    9.4536   -2.3189    0.0000 C   0  0  0  0  0  0  0  0  0  0  0  0
    9.4582   -1.4776    0.0000 C   0  0  0  0  0  0  0  0  0  0  0  0
   10.1685   -1.0797    0.0000 C   0  0  0  0  0  0  0  0  0  0  0  0
   10.1607   -0.2691    0.0000 F   0  0  0  0  0  0  0  0  0  0  0  0
   10.8844   -1.4931    0.0000 C   0  0  0  0  0  0  0  0  0  0  0  0
   10.8823   -2.3049    0.0000 C   0  0  0  0  0  0  0  0  0  0  0  0
   10.1448   -3.5452    0.0000 N   0  0  0  0  0  0  0  0  0  0  0  0
   10.1633   -2.7142    0.0000 C   0  0  0  0  0  0  0  0  0  0  0  0
    8.7460   -3.5393    0.0000 C   0  0  0  0  0  0  0  0  0  0  0  0
    9.4332   -3.9364    0.0000 C   0  0  0  0  0  0  0  0  0  0  0  0
    1.7013   -2.6761    0.0000 C   0  0  0  0  0  0  0  0  0  0  0  0
    0.5618   -2.3107    0.0000 N   0  0  0  0  0  0  0  0  0  0  0  0
    2.3198   -2.3278    0.0000 C   0  0  0  0  0  0  0  0  0  0  0  0
    2.3364   -1.4829    0.0000 C   0  0  0  0  0  0  0  0  0  0  0  0
    3.0741   -1.0960    0.0000 C   0  0  0  0  0  0  0  0  0  0  0  0
    3.7601   -1.4857    0.0000 C   0  0  0  0  0  0  0  0  0  0  0  0
    4.4472   -0.8547    0.0000 N   0  0  0  0  0  0  0  0  0  0  0  0
    3.7568   -2.3156    0.0000 C   0  0  0  0  0  0  0  0  0  0  0  0
    3.0284   -2.7139    0.0000 C   0  0  0  0  0  0  0  0  0  0  0  0
    1.5985   -3.5452    0.0000 O   0  0  0  0  0  0  0  0  0  0  0  0
    5.1260   -1.4683    0.0000 C   0  0  0  0  0  0  0  0  0  0  0  0
    5.9260   -1.1033    0.0000 C   0  0  0  0  0  0  0  0  0  0  0  0
    5.8717   -0.2691    0.0000 O   0  0  0  0  0  0  0  0  0  0  0  0
    5.1753   -2.3107    0.0000 O   0  0  0  0  0  0  0  0  0  0  0  0
  1  2  1  0  0  0  0
  2 16  2  0  0  0  0
  3  4  1  0  0  0  0
  3  1  1  0  0  0  0
  4  5  1  0  0  0  0
  6  5  1  0  0  0  0
  6  7  1  0  0  0  0
  7  1  1  0  0  0  0
  8  2  1  0  0  0  0
  8 15  2  0  0  0  0
  9 10  2  0  0  0  0
  9  8  1  0  0  0  0
 10 11  1  0  0  0  0
 12 10  1  0  0  0  0
 13 12  2  0  0  0  0
 14 15  1  0  0  0  0
 15 13  1  0  0  0  0
 16 17  1  0  0  0  0
 17 14  2  0  0  0  0
 18 19  1  0  0  0  0
 18 20  1  0  0  0  0
 20 21  2  0  0  0  0
 20 26  1  0  0  0  0
 21 22  1  0  0  0  0
 22 23  2  0  0  0  0
 23 24  1  0  0  0  0
 24 28  1  0  0  0  0
 25 23  1  0  0  0  0
 26 25  2  0  0  0  0
 27 18  2  0  0  0  0
 28 31  2  0  0  0  0
 29 28  1  0  0  0  0
 29  5  1  0  0  0  0
 30 29  2  0  0  0  0
M  END
> <ID>
SCHEMBL21138099

> <InChIKey>
FQLPDVNKAVLEGT-UHFFFAOYSA-N

> <MW>
420.444

> <Series_Name>
Series_12

$$$$
SCHEMBL21138100
  Mrv1719007171910322D 0   0.00000     0.00000     0

 32 35  0  0  0  0              1 V2000 
    7.2647   -2.3461    0.0000 C   0  0  0  0  0  0  0  0  0  0  0  0
    7.9842   -2.7346    0.0000 C   0  0  0  0  0  0  0  0  0  0  0  0
    6.5553   -2.7334    0.0000 C   0  0  0  0  0  0  0  0  0  0  0  0
    5.8388   -2.3385    0.0000 C   0  0  0  0  0  0  0  0  0  0  0  0
    5.8175   -1.5142    0.0000 N   0  0  0  0  0  0  0  0  0  0  0  0
    6.5748   -1.1077    0.0000 C   0  0  0  0  0  0  0  0  0  0  0  0
    7.2796   -1.5038    0.0000 C   0  0  0  0  0  0  0  0  0  0  0  0
    8.7016   -2.3410    0.0000 C   0  0  0  0  0  0  0  0  0  0  0  0
    8.7124   -1.4934    0.0000 C   0  0  0  0  0  0  0  0  0  0  0  0
    9.4030   -1.1061    0.0000 C   0  0  0  0  0  0  0  0  0  0  0  0
    9.4196   -0.2710    0.0000 F   0  0  0  0  0  0  0  0  0  0  0  0
   10.1428   -1.4932    0.0000 C   0  0  0  0  0  0  0  0  0  0  0  0
   10.1398   -2.3278    0.0000 C   0  0  0  0  0  0  0  0  0  0  0  0
    9.4291   -2.7402    0.0000 C   0  0  0  0  0  0  0  0  0  0  0  0
    9.4037   -3.5702    0.0000 N   0  0  0  0  0  0  0  0  0  0  0  0
    7.9949   -3.5802    0.0000 C   0  0  0  0  0  0  0  0  0  0  0  0
    8.6982   -3.9798    0.0000 C   0  0  0  0  0  0  0  0  0  0  0  0
    0.7969   -2.7414    0.0000 S   0  0  0  0  0  0  0  0  0  0  0  0
    0.8128   -3.5862    0.0000 O   0  0  0  0  0  0  0  0  0  0  0  0
    1.5328   -2.3320    0.0000 C   0  0  0  0  0  0  0  0  0  0  0  0
    1.5401   -1.4932    0.0000 C   0  0  0  0  0  0  0  0  0  0  0  0
    2.2574   -1.0872    0.0000 C   0  0  0  0  0  0  0  0  0  0  0  0
    2.9739   -1.4961    0.0000 C   0  0  0  0  0  0  0  0  0  0  0  0
    3.6658   -0.8607    0.0000 N   0  0  0  0  0  0  0  0  0  0  0  0
    2.9705   -2.3320    0.0000 C   0  0  0  0  0  0  0  0  0  0  0  0
    2.2529   -2.7380    0.0000 C   0  0  0  0  0  0  0  0  0  0  0  0
    0.1036   -2.3219    0.0000 C   0  0  0  0  0  0  0  0  0  0  0  0
    0.8128   -1.9126    0.0000 O   0  0  0  0  0  0  0  0  0  0  0  0
    4.4849   -1.4748    0.0000 C   0  0  0  0  0  0  0  0  0  0  0  0
    5.1003   -0.2710    0.0000 O   0  0  0  0  0  0  0  0  0  0  0  0
    5.1753   -1.1195    0.0000 C   0  0  0  0  0  0  0  0  0  0  0  0
    4.3990   -2.3429    0.0000 O   0  0  0  0  0  0  0  0  0  0  0  0
  1  2  1  0  0  0  0
  2  8  1  0  0  0  0
  2 16  2  0  0  0  0
  3  4  1  0  0  0  0
  3  1  1  0  0  0  0
  4  5  1  0  0  0  0
  5  6  1  0  0  0  0
  6  7  1  0  0  0  0
  7  1  1  0  0  0  0
  8 14  2  0  0  0  0
  9  8  1  0  0  0  0
  9 10  2  0  0  0  0
 10 11  1  0  0  0  0
 12 10  1  0  0  0  0
 13 12  2  0  0  0  0
 14 15  1  0  0  0  0
 14 13  1  0  0  0  0
 16 17  1  0  0  0  0
 17 15  2  0  0  0  0
 18 19  2  0  0  0  0
 18 28  2  0  0  0  0
 20 18  1  0  0  0  0
 20 21  2  0  0  0  0
 20 26  1  0  0  0  0
 21 22  1  0  0  0  0
 22 23  2  0  0  0  0
 23 24  1  0  0  0  0
 25 23  1  0  0  0  0
 26 25  2  0  0  0  0
 27 18  1  0  0  0  0
 29 24  1  0  0  0  0
 29 31  1  0  0  0  0
 30 31  2  0  0  0  0
 31  5  1  0  0  0  0
 32 29  2  0  0  0  0
M  END
> <ID>
SCHEMBL21138100

> <InChIKey>
WTACSAAAPQNJAJ-UHFFFAOYSA-N

> <MW>
455.5

> <Series_Name>
Series_12

$$$$
SCHEMBL21138151
  Mrv1719007171910462D 0   0.00000     0.00000     0

 30 33  0  0  0  0              1 V2000 
    7.6842   -2.7347    0.0000 C   0  0  0  0  0  0  0  0  0  0  0  0
    7.6868   -3.5730    0.0000 C   0  0  0  0  0  0  0  0  0  0  0  0
    6.2520   -2.7300    0.0000 C   0  0  0  0  0  0  0  0  0  0  0  0
    5.5348   -2.3373    0.0000 C   0  0  0  0  0  0  0  0  0  0  0  0
    5.5260   -1.4856    0.0000 N   0  0  0  0  0  0  0  0  0  0  0  0
    6.9698   -2.3457    0.0000 C   0  0  0  0  0  0  0  0  0  0  0  0
    6.9743   -1.5056    0.0000 C   0  0  0  0  0  0  0  0  0  0  0  0
    6.2830   -1.1177    0.0000 C   0  0  0  0  0  0  0  0  0  0  0  0
    8.4087   -1.4949    0.0000 C   0  0  0  0  0  0  0  0  0  0  0  0
    8.4053   -2.3349    0.0000 C   0  0  0  0  0  0  0  0  0  0  0  0
    9.1084   -1.1166    0.0000 C   0  0  0  0  0  0  0  0  0  0  0  0
    9.1220   -0.2638    0.0000 F   0  0  0  0  0  0  0  0  0  0  0  0
    9.8541   -1.5048    0.0000 C   0  0  0  0  0  0  0  0  0  0  0  0
    9.8499   -2.3298    0.0000 C   0  0  0  0  0  0  0  0  0  0  0  0
   10.5521   -2.7214    0.0000 F   0  0  0  0  0  0  0  0  0  0  0  0
    9.1285   -2.7322    0.0000 C   0  0  0  0  0  0  0  0  0  0  0  0
    9.1082   -3.5544    0.0000 N   0  0  0  0  0  0  0  0  0  0  0  0
    8.4060   -3.9666    0.0000 C   0  0  0  0  0  0  0  0  0  0  0  0
    0.3776   -2.7283    0.0000 Cl  0  0  0  0  0  0  0  0  0  0  0  0
    1.2211   -2.3486    0.0000 C   0  0  0  0  0  0  0  0  0  0  0  0
    1.2402   -1.4894    0.0000 C   0  0  0  0  0  0  0  0  0  0  0  0
    1.9877   -1.1142    0.0000 C   0  0  0  0  0  0  0  0  0  0  0  0
    2.6743   -1.4978    0.0000 C   0  0  0  0  0  0  0  0  0  0  0  0
    3.3739   -0.8470    0.0000 N   0  0  0  0  0  0  0  0  0  0  0  0
    2.6710   -2.3372    0.0000 C   0  0  0  0  0  0  0  0  0  0  0  0
    1.9486   -2.7321    0.0000 C   0  0  0  0  0  0  0  0  0  0  0  0
    4.0337   -1.4830    0.0000 C   0  0  0  0  0  0  0  0  0  0  0  0
    4.8040   -0.2638    0.0000 O   0  0  0  0  0  0  0  0  0  0  0  0
    4.8919   -1.1332    0.0000 C   0  0  0  0  0  0  0  0  0  0  0  0
    4.0959   -2.3048    0.0000 O   0  0  0  0  0  0  0  0  0  0  0  0
  1  2  2  0  0  0  0
  1 10  1  0  0  0  0
  2 18  1  0  0  0  0
  3  4  1  0  0  0  0
  3  6  1  0  0  0  0
  4  5  1  0  0  0  0
  5  8  1  0  0  0  0
  6  7  1  0  0  0  0
  6  1  1  0  0  0  0
  8  7  1  0  0  0  0
  9 10  1  0  0  0  0
  9 11  2  0  0  0  0
 10 16  2  0  0  0  0
 11 12  1  0  0  0  0
 13 11  1  0  0  0  0
 14 13  2  0  0  0  0
 15 14  1  0  0  0  0
 16 17  1  0  0  0  0
 16 14  1  0  0  0  0
 18 17  2  0  0  0  0
 19 20  1  0  0  0  0
 20 21  2  0  0  0  0
 20 26  1  0  0  0  0
 21 22  1  0  0  0  0
 22 23  2  0  0  0  0
 23 24  1  0  0  0  0
 24 27  1  0  0  0  0
 25 23  1  0  0  0  0
 26 25  2  0  0  0  0
 27 30  2  0  0  0  0
 28 29  2  0  0  0  0
 29  5  1  0  0  0  0
 29 27  1  0  0  0  0
M  END
> <ID>
SCHEMBL21138151

> <InChIKey>
YIUDNKAEXNFQKK-UHFFFAOYSA-N

> <MW>
429.85

> <Series_Name>
Series_12

$$$$
SCHEMBL21138152
  Mrv1719007171910462D 0   0.00000     0.00000     0

 31 34  0  0  0  0              1 V2000 
    7.0107   -2.7589    0.0000 C   0  0  0  0  0  0  0  0  0  0  0  0
    7.7459   -3.1475    0.0000 C   0  0  0  0  0  0  0  0  0  0  0  0
    6.2994   -3.1477    0.0000 C   0  0  0  0  0  0  0  0  0  0  0  0
    5.5770   -2.7523    0.0000 C   0  0  0  0  0  0  0  0  0  0  0  0
    5.5582   -1.9314    0.0000 N   0  0  0  0  0  0  0  0  0  0  0  0
    7.0227   -1.9227    0.0000 C   0  0  0  0  0  0  0  0  0  0  0  0
    6.3199   -1.5259    0.0000 C   0  0  0  0  0  0  0  0  0  0  0  0
    8.4684   -2.7498    0.0000 C   0  0  0  0  0  0  0  0  0  0  0  0
    8.4724   -1.9078    0.0000 C   0  0  0  0  0  0  0  0  0  0  0  0
    9.1935   -1.5070    0.0000 C   0  0  0  0  0  0  0  0  0  0  0  0
    8.4478   -0.2654    0.0000 O   0  0  0  0  0  0  0  0  0  0  0  0
    9.1842   -0.7740    0.0000 C   0  0  0  0  0  0  0  0  0  0  0  0
   10.0991   -0.2801    0.0000 N   0  0  0  0  0  0  0  0  0  0  0  0
    9.9183   -1.9211    0.0000 C   0  0  0  0  0  0  0  0  0  0  0  0
    9.9164   -2.7373    0.0000 C   0  0  0  0  0  0  0  0  0  0  0  0
    9.1703   -3.9954    0.0000 N   0  0  0  0  0  0  0  0  0  0  0  0
    9.1884   -3.1476    0.0000 C   0  0  0  0  0  0  0  0  0  0  0  0
    7.7500   -3.9894    0.0000 C   0  0  0  0  0  0  0  0  0  0  0  0
    8.4497   -4.3904    0.0000 C   0  0  0  0  0  0  0  0  0  0  0  0
    0.4009   -3.1624    0.0000 Cl  0  0  0  0  0  0  0  0  0  0  0  0
    1.2592   -2.7499    0.0000 C   0  0  0  0  0  0  0  0  0  0  0  0
    1.2629   -1.9079    0.0000 C   0  0  0  0  0  0  0  0  0  0  0  0
    1.9624   -1.5055    0.0000 C   0  0  0  0  0  0  0  0  0  0  0  0
    2.6981   -1.9096    0.0000 C   0  0  0  0  0  0  0  0  0  0  0  0
    3.4057   -1.2827    0.0000 N   0  0  0  0  0  0  0  0  0  0  0  0
    2.7088   -2.7378    0.0000 C   0  0  0  0  0  0  0  0  0  0  0  0
    1.9657   -3.1517    0.0000 C   0  0  0  0  0  0  0  0  0  0  0  0
    4.2077   -1.8936    0.0000 C   0  0  0  0  0  0  0  0  0  0  0  0
    4.8358   -0.6929    0.0000 O   0  0  0  0  0  0  0  0  0  0  0  0
    4.8959   -1.5306    0.0000 C   0  0  0  0  0  0  0  0  0  0  0  0
    4.1281   -2.7422    0.0000 O   0  0  0  0  0  0  0  0  0  0  0  0
  1  2  1  0  0  0  0
  1  6  1  0  0  0  0
  2 18  2  0  0  0  0
  3  4  1  0  0  0  0
  3  1  1  0  0  0  0
  4  5  1  0  0  0  0
  5  7  1  0  0  0  0
  7  6  1  0  0  0  0
  8  2  1  0  0  0  0
  8 17  2  0  0  0  0
  9 10  2  0  0  0  0
  9  8  1  0  0  0  0
 11 12  2  0  0  0  0
 12 13  1  0  0  0  0
 12 10  1  0  0  0  0
 14 10  1  0  0  0  0
 15 14  2  0  0  0  0
 16 17  1  0  0  0  0
 17 15  1  0  0  0  0
 18 19  1  0  0  0  0
 19 16  2  0  0  0  0
 20 21  1  0  0  0  0
 21 22  2  0  0  0  0
 22 23  1  0  0  0  0
 23 24  2  0  0  0  0
 24 25  1  0  0  0  0
 26 24  1  0  0  0  0
 27 26  2  0  0  0  0
 27 21  1  0  0  0  0
 28 25  1  0  0  0  0
 28 30  1  0  0  0  0
 29 30  2  0  0  0  0
 30  5  1  0  0  0  0
 31 28  2  0  0  0  0
M  END
> <ID>
SCHEMBL21138152

> <InChIKey>
VGRVNVAVJIZNMD-UHFFFAOYSA-N

> <MW>
436.9

> <Series_Name>
Series_12

$$$$
SCHEMBL21138420
  Mrv1719007171911162D 0   0.00000     0.00000     0

 29 32  0  0  0  0              1 V2000 
    7.3311   -2.7603    0.0000 C   0  0  0  0  0  0  0  0  0  0  0  0
    7.3381   -3.5853    0.0000 C   0  0  0  0  0  0  0  0  0  0  0  0
    6.6315   -2.3490    0.0000 C   0  0  0  0  0  0  0  0  0  0  0  0
    5.9048   -2.7595    0.0000 C   0  0  0  0  0  0  0  0  0  0  0  0
    5.2005   -2.3499    0.0000 C   0  0  0  0  0  0  0  0  0  0  0  0
    5.1917   -1.5131    0.0000 N   0  0  0  0  0  0  0  0  0  0  0  0
    5.9095   -1.1156    0.0000 C   0  0  0  0  0  0  0  0  0  0  0  0
    6.6267   -1.5226    0.0000 C   0  0  0  0  0  0  0  0  0  0  0  0
    8.0470   -2.3610    0.0000 C   0  0  0  0  0  0  0  0  0  0  0  0
    8.0625   -1.5131    0.0000 C   0  0  0  0  0  0  0  0  0  0  0  0
    8.7642   -1.1125    0.0000 C   0  0  0  0  0  0  0  0  0  0  0  0
    8.7593   -0.2637    0.0000 F   0  0  0  0  0  0  0  0  0  0  0  0
    9.4914   -1.5184    0.0000 C   0  0  0  0  0  0  0  0  0  0  0  0
    9.4837   -2.3466    0.0000 C   0  0  0  0  0  0  0  0  0  0  0  0
    8.7692   -2.7590    0.0000 C   0  0  0  0  0  0  0  0  0  0  0  0
    8.7593   -3.5814    0.0000 N   0  0  0  0  0  0  0  0  0  0  0  0
    8.0484   -3.9954    0.0000 C   0  0  0  0  0  0  0  0  0  0  0  0
    0.1943   -2.7485    0.0000 F   0  0  0  0  0  0  0  0  0  0  0  0
    0.9206   -2.3561    0.0000 C   0  0  0  0  0  0  0  0  0  0  0  0
    0.9220   -1.5173    0.0000 C   0  0  0  0  0  0  0  0  0  0  0  0
    1.6259   -1.1165    0.0000 C   0  0  0  0  0  0  0  0  0  0  0  0
    2.3514   -1.5165    0.0000 C   0  0  0  0  0  0  0  0  0  0  0  0
    3.0539   -0.8606    0.0000 N   0  0  0  0  0  0  0  0  0  0  0  0
    2.3512   -2.3503    0.0000 C   0  0  0  0  0  0  0  0  0  0  0  0
    1.6290   -2.7594    0.0000 C   0  0  0  0  0  0  0  0  0  0  0  0
    3.7226   -1.5040    0.0000 C   0  0  0  0  0  0  0  0  0  0  0  0
    4.4059   -1.1444    0.0000 C   0  0  0  0  0  0  0  0  0  0  0  0
    4.4698   -0.2637    0.0000 O   0  0  0  0  0  0  0  0  0  0  0  0
    3.7480   -2.3321    0.0000 O   0  0  0  0  0  0  0  0  0  0  0  0
  1  2  2  0  0  0  0
  1  9  1  0  0  0  0
  2 17  1  0  0  0  0
  3  1  1  0  0  0  0
  3  4  1  0  0  0  0
  4  5  1  0  0  0  0
  5  6  1  0  0  0  0
  6 27  1  0  0  0  0
  7  6  1  0  0  0  0
  7  8  1  0  0  0  0
  8  3  1  0  0  0  0
  9 15  2  0  0  0  0
 10  9  1  0  0  0  0
 10 11  2  0  0  0  0
 11 12  1  0  0  0  0
 11 13  1  0  0  0  0
 14 13  2  0  0  0  0
 15 16  1  0  0  0  0
 15 14  1  0  0  0  0
 17 16  2  0  0  0  0
 18 19  1  0  0  0  0
 19 20  2  0  0  0  0
 19 25  1  0  0  0  0
 20 21  1  0  0  0  0
 21 22  2  0  0  0  0
 22 23  1  0  0  0  0
 23 26  1  0  0  0  0
 24 22  1  0  0  0  0
 25 24  2  0  0  0  0
 26 29  2  0  0  0  0
 27 26  1  0  0  0  0
 27 28  2  0  0  0  0
M  END
> <ID>
SCHEMBL21138420

> <InChIKey>
AFKMRAOHOWJZMM-UHFFFAOYSA-N

> <MW>
395.41

> <Series_Name>
Series_12

$$$$
SCHEMBL21138421
  Mrv1719007171911162D 0   0.00000     0.00000     0

 32 35  0  0  0  0              1 V2000 
    8.0739   -2.7613    0.0000 C   0  0  0  0  0  0  0  0  0  0  0  0
    8.0770   -3.6013    0.0000 C   0  0  0  0  0  0  0  0  0  0  0  0
    6.6386   -2.7610    0.0000 C   0  0  0  0  0  0  0  0  0  0  0  0
    5.9343   -2.3568    0.0000 C   0  0  0  0  0  0  0  0  0  0  0  0
    5.9158   -1.5137    0.0000 N   0  0  0  0  0  0  0  0  0  0  0  0
    7.3885   -2.3644    0.0000 C   0  0  0  0  0  0  0  0  0  0  0  0
    6.6677   -1.1283    0.0000 C   0  0  0  0  0  0  0  0  0  0  0  0
    7.3653   -1.5231    0.0000 C   0  0  0  0  0  0  0  0  0  0  0  0
    8.8177   -2.3674    0.0000 C   0  0  0  0  0  0  0  0  0  0  0  0
    8.7991   -1.5233    0.0000 C   0  0  0  0  0  0  0  0  0  0  0  0
    9.4963   -1.1273    0.0000 C   0  0  0  0  0  0  0  0  0  0  0  0
    9.4986   -0.2777    0.0000 F   0  0  0  0  0  0  0  0  0  0  0  0
   10.2260   -1.5230    0.0000 C   0  0  0  0  0  0  0  0  0  0  0  0
   10.2233   -2.3480    0.0000 C   0  0  0  0  0  0  0  0  0  0  0  0
    9.4986   -3.5828    0.0000 N   0  0  0  0  0  0  0  0  0  0  0  0
    9.5152   -2.7565    0.0000 C   0  0  0  0  0  0  0  0  0  0  0  0
    8.7958   -3.9953    0.0000 C   0  0  0  0  0  0  0  0  0  0  0  0
    0.1944   -2.3330    0.0000 F   0  0  0  0  0  0  0  0  0  0  0  0
    0.9227   -2.7612    0.0000 C   0  0  0  0  0  0  0  0  0  0  0  0
    1.6344   -2.3619    0.0000 C   0  0  0  0  0  0  0  0  0  0  0  0
    1.6473   -1.5233    0.0000 C   0  0  0  0  0  0  0  0  0  0  0  0
    2.3330   -1.1307    0.0000 C   0  0  0  0  0  0  0  0  0  0  0  0
    2.3469   -0.2777    0.0000 F   0  0  0  0  0  0  0  0  0  0  0  0
    3.0775   -1.5263    0.0000 C   0  0  0  0  0  0  0  0  0  0  0  0
    3.7773   -0.8610    0.0000 N   0  0  0  0  0  0  0  0  0  0  0  0
    3.0742   -2.3513    0.0000 C   0  0  0  0  0  0  0  0  0  0  0  0
    2.3476   -2.7563    0.0000 C   0  0  0  0  0  0  0  0  0  0  0  0
    0.9165   -3.5828    0.0000 F   0  0  0  0  0  0  0  0  0  0  0  0
    4.4249   -1.5059    0.0000 C   0  0  0  0  0  0  0  0  0  0  0  0
    5.1454   -1.1406    0.0000 C   0  0  0  0  0  0  0  0  0  0  0  0
    5.2076   -0.2639    0.0000 O   0  0  0  0  0  0  0  0  0  0  0  0
    4.4855   -2.3330    0.0000 O   0  0  0  0  0  0  0  0  0  0  0  0
  1  2  2  0  0  0  0
  1  9  1  0  0  0  0
  2 17  1  0  0  0  0
  3  4  1  0  0  0  0
  3  6  1  0  0  0  0
  4  5  1  0  0  0  0
  5  7  1  0  0  0  0
  5 30  1  0  0  0  0
  6  1  1  0  0  0  0
  7  8  1  0  0  0  0
  8  6  1  0  0  0  0
  9 16  2  0  0  0  0
 10  9  1  0  0  0  0
 10 11  2  0  0  0  0
 11 12  1  0  0  0  0
 13 11  1  0  0  0  0
 14 13  2  0  0  0  0
 15 16  1  0  0  0  0
 16 14  1  0  0  0  0
 17 15  2  0  0  0  0
 18 19  1  0  0  0  0
 19 20  1  0  0  0  0
 20 21  2  0  0  0  0
 20 27  1  0  0  0  0
 21 22  1  0  0  0  0
 22 24  2  0  0  0  0
 23 22  1  0  0  0  0
 24 25  1  0  0  0  0
 25 29  1  0  0  0  0
 26 24  1  0  0  0  0
 27 26  2  0  0  0  0
 28 19  1  0  0  0  0
 29 32  2  0  0  0  0
 30 29  1  0  0  0  0
 30 31  2  0  0  0  0
M  END
> <ID>
SCHEMBL21138421

> <InChIKey>
DHDAANWVUYFXEW-UHFFFAOYSA-N

> <MW>
445.418

> <Series_Name>
Series_12

$$$$
SCHEMBL21138422
  Mrv1719007171911162D 0   0.00000     0.00000     0

 30 33  0  0  0  0              1 V2000 
    7.6839   -2.7606    0.0000 C   0  0  0  0  0  0  0  0  0  0  0  0
    7.6869   -3.5861    0.0000 C   0  0  0  0  0  0  0  0  0  0  0  0
    6.2487   -2.7606    0.0000 C   0  0  0  0  0  0  0  0  0  0  0  0
    5.5446   -2.3564    0.0000 C   0  0  0  0  0  0  0  0  0  0  0  0
    5.5261   -1.5134    0.0000 N   0  0  0  0  0  0  0  0  0  0  0  0
    6.9699   -2.3596    0.0000 C   0  0  0  0  0  0  0  0  0  0  0  0
    6.9745   -1.5194    0.0000 C   0  0  0  0  0  0  0  0  0  0  0  0
    6.2620   -1.1149    0.0000 C   0  0  0  0  0  0  0  0  0  0  0  0
    8.3953   -2.3617    0.0000 C   0  0  0  0  0  0  0  0  0  0  0  0
    8.4115   -1.5134    0.0000 C   0  0  0  0  0  0  0  0  0  0  0  0
    9.1129   -1.1130    0.0000 C   0  0  0  0  0  0  0  0  0  0  0  0
    9.1083   -0.2638    0.0000 F   0  0  0  0  0  0  0  0  0  0  0  0
    9.8355   -1.5088    0.0000 C   0  0  0  0  0  0  0  0  0  0  0  0
    9.8329   -2.3474    0.0000 C   0  0  0  0  0  0  0  0  0  0  0  0
    9.1183   -2.7598    0.0000 C   0  0  0  0  0  0  0  0  0  0  0  0
    9.1083   -3.5822    0.0000 N   0  0  0  0  0  0  0  0  0  0  0  0
    8.3921   -3.9946    0.0000 C   0  0  0  0  0  0  0  0  0  0  0  0
    0.3667   -2.7732    0.0000 Br  0  0  0  0  0  0  0  0  0  0  0  0
    1.2555   -2.3485    0.0000 C   0  0  0  0  0  0  0  0  0  0  0  0
    1.2583   -1.5088    0.0000 C   0  0  0  0  0  0  0  0  0  0  0  0
    1.9570   -1.1301    0.0000 C   0  0  0  0  0  0  0  0  0  0  0  0
    1.9577   -0.2638    0.0000 F   0  0  0  0  0  0  0  0  0  0  0  0
    2.6882   -1.5116    0.0000 C   0  0  0  0  0  0  0  0  0  0  0  0
    3.3878   -0.8539    0.0000 N   0  0  0  0  0  0  0  0  0  0  0  0
    2.6849   -2.3504    0.0000 C   0  0  0  0  0  0  0  0  0  0  0  0
    1.9800   -2.7551    0.0000 C   0  0  0  0  0  0  0  0  0  0  0  0
    4.1848   -1.4915    0.0000 C   0  0  0  0  0  0  0  0  0  0  0  0
    4.7521   -1.1446    0.0000 C   0  0  0  0  0  0  0  0  0  0  0  0
    4.8179   -0.2638    0.0000 O   0  0  0  0  0  0  0  0  0  0  0  0
    4.1099   -2.3326    0.0000 O   0  0  0  0  0  0  0  0  0  0  0  0
  1  2  2  0  0  0  0
  1  9  1  0  0  0  0
  2 17  1  0  0  0  0
  3  4  1  0  0  0  0
  3  6  1  0  0  0  0
  4  5  1  0  0  0  0
  5 28  1  0  0  0  0
  6  7  1  0  0  0  0
  6  1  1  0  0  0  0
  8  5  1  0  0  0  0
  8  7  1  0  0  0  0
  9 15  2  0  0  0  0
 10  9  1  0  0  0  0
 10 11  2  0  0  0  0
 11 12  1  0  0  0  0
 11 13  1  0  0  0  0
 14 13  2  0  0  0  0
 15 16  1  0  0  0  0
 15 14  1  0  0  0  0
 17 16  2  0  0  0  0
 18 19  1  0  0  0  0
 19 20  2  0  0  0  0
 19 26  1  0  0  0  0
 20 21  1  0  0  0  0
 21 23  2  0  0  0  0
 22 21  1  0  0  0  0
 23 24  1  0  0  0  0
 25 23  1  0  0  0  0
 26 25  2  0  0  0  0
 27 24  1  0  0  0  0
 27 28  1  0  0  0  0
 28 29  2  0  0  0  0
 30 27  2  0  0  0  0
M  END
> <ID>
SCHEMBL21138422

> <InChIKey>
MXQXKPMEFYVNKN-UHFFFAOYSA-N

> <MW>
474.306

> <Series_Name>
Series_12

$$$$
SCHEMBL21138423
  Mrv1719007171911162D 0   0.00000     0.00000     0

 29 32  0  0  0  0              1 V2000 
    7.6832   -2.7464    0.0000 C   0  0  0  0  0  0  0  0  0  0  0  0
    7.6862   -3.5856    0.0000 C   0  0  0  0  0  0  0  0  0  0  0  0
    6.2481   -2.7464    0.0000 C   0  0  0  0  0  0  0  0  0  0  0  0
    5.5441   -2.3423    0.0000 C   0  0  0  0  0  0  0  0  0  0  0  0
    5.5256   -1.4994    0.0000 N   0  0  0  0  0  0  0  0  0  0  0  0
    6.9693   -2.3455    0.0000 C   0  0  0  0  0  0  0  0  0  0  0  0
    6.9739   -1.5193    0.0000 C   0  0  0  0  0  0  0  0  0  0  0  0
    6.2768   -1.1142    0.0000 C   0  0  0  0  0  0  0  0  0  0  0  0
    8.3945   -2.3476    0.0000 C   0  0  0  0  0  0  0  0  0  0  0  0
    8.4081   -1.5091    0.0000 C   0  0  0  0  0  0  0  0  0  0  0  0
    9.0936   -1.1165    0.0000 C   0  0  0  0  0  0  0  0  0  0  0  0
    9.1075   -0.2638    0.0000 F   0  0  0  0  0  0  0  0  0  0  0  0
    9.8346   -1.5089    0.0000 C   0  0  0  0  0  0  0  0  0  0  0  0
    9.8320   -2.3333    0.0000 C   0  0  0  0  0  0  0  0  0  0  0  0
    9.1175   -2.7457    0.0000 C   0  0  0  0  0  0  0  0  0  0  0  0
    9.1075   -3.5680    0.0000 N   0  0  0  0  0  0  0  0  0  0  0  0
    8.3910   -3.9805    0.0000 C   0  0  0  0  0  0  0  0  0  0  0  0
    0.3572   -2.7699    0.0000 Br  0  0  0  0  0  0  0  0  0  0  0  0
    1.2435   -2.3526    0.0000 C   0  0  0  0  0  0  0  0  0  0  0  0
    1.2582   -1.5089    0.0000 C   0  0  0  0  0  0  0  0  0  0  0  0
    2.0011   -1.1142    0.0000 C   0  0  0  0  0  0  0  0  0  0  0  0
    2.6880   -1.5120    0.0000 C   0  0  0  0  0  0  0  0  0  0  0  0
    3.3875   -0.8469    0.0000 N   0  0  0  0  0  0  0  0  0  0  0  0
    2.6847   -2.3362    0.0000 C   0  0  0  0  0  0  0  0  0  0  0  0
    1.9798   -2.7410    0.0000 C   0  0  0  0  0  0  0  0  0  0  0  0
    4.1842   -1.4913    0.0000 C   0  0  0  0  0  0  0  0  0  0  0  0
    4.7553   -1.1267    0.0000 C   0  0  0  0  0  0  0  0  0  0  0  0
    4.8175   -0.2638    0.0000 O   0  0  0  0  0  0  0  0  0  0  0  0
    4.1095   -2.3185    0.0000 O   0  0  0  0  0  0  0  0  0  0  0  0
  1  2  2  0  0  0  0
  1  9  1  0  0  0  0
  2 17  1  0  0  0  0
  3  4  1  0  0  0  0
  3  6  1  0  0  0  0
  4  5  1  0  0  0  0
  5  8  1  0  0  0  0
  5 27  1  0  0  0  0
  6  7  1  0  0  0  0
  6  1  1  0  0  0  0
  8  7  1  0  0  0  0
  9 15  2  0  0  0  0
 10  9  1  0  0  0  0
 10 11  2  0  0  0  0
 11 12  1  0  0  0  0
 13 11  1  0  0  0  0
 14 13  2  0  0  0  0
 15 16  1  0  0  0  0
 15 14  1  0  0  0  0
 17 16  2  0  0  0  0
 18 19  1  0  0  0  0
 19 20  2  0  0  0  0
 19 25  1  0  0  0  0
 20 21  1  0  0  0  0
 21 22  2  0  0  0  0
 22 23  1  0  0  0  0
 24 22  1  0  0  0  0
 25 24  2  0  0  0  0
 26 23  1  0  0  0  0
 26 27  1  0  0  0  0
 27 28  2  0  0  0  0
 29 26  2  0  0  0  0
M  END
> <ID>
SCHEMBL21138423

> <InChIKey>
ZOABWLLXSFPZII-UHFFFAOYSA-N

> <MW>
456.315

> <Series_Name>
Series_12

$$$$
SCHEMBL21138425
  Mrv1719007171911172D 0   0.00000     0.00000     0

 30 33  0  0  0  0              1 V2000 
    7.6122   -3.5449    0.0000 C   0  0  0  0  0  0  0  0  0  0  0  0
    7.6209   -2.7102    0.0000 C   0  0  0  0  0  0  0  0  0  0  0  0
    6.9163   -2.3365    0.0000 C   0  0  0  0  0  0  0  0  0  0  0  0
    6.1479   -2.7141    0.0000 C   0  0  0  0  0  0  0  0  0  0  0  0
    5.4809   -2.3292    0.0000 C   0  0  0  0  0  0  0  0  0  0  0  0
    5.4625   -1.4823    0.0000 N   0  0  0  0  0  0  0  0  0  0  0  0
    6.2084   -1.1030    0.0000 C   0  0  0  0  0  0  0  0  0  0  0  0
    6.8951   -1.4916    0.0000 C   0  0  0  0  0  0  0  0  0  0  0  0
    8.3130   -2.3328    0.0000 C   0  0  0  0  0  0  0  0  0  0  0  0
    8.3218   -1.4863    0.0000 C   0  0  0  0  0  0  0  0  0  0  0  0
    9.0056   -1.1035    0.0000 C   0  0  0  0  0  0  0  0  0  0  0  0
    9.0173   -0.2608    0.0000 F   0  0  0  0  0  0  0  0  0  0  0  0
    9.7361   -1.4916    0.0000 C   0  0  0  0  0  0  0  0  0  0  0  0
    9.7361   -2.3237    0.0000 C   0  0  0  0  0  0  0  0  0  0  0  0
    9.0463   -2.7108    0.0000 C   0  0  0  0  0  0  0  0  0  0  0  0
    9.0173   -3.5273    0.0000 N   0  0  0  0  0  0  0  0  0  0  0  0
    8.3030   -3.9485    0.0000 C   0  0  0  0  0  0  0  0  0  0  0  0
    0.3732   -2.7107    0.0000 Cl  0  0  0  0  0  0  0  0  0  0  0  0
    1.2147   -2.3394    0.0000 C   0  0  0  0  0  0  0  0  0  0  0  0
    1.2301   -1.4918    0.0000 C   0  0  0  0  0  0  0  0  0  0  0  0
    1.9219   -1.1038    0.0000 C   0  0  0  0  0  0  0  0  0  0  0  0
    2.1342   -0.2608    0.0000 C   0  0  0  0  0  0  0  0  0  0  0  0
    2.6547   -1.4924    0.0000 C   0  0  0  0  0  0  0  0  0  0  0  0
    3.3489   -0.8441    0.0000 N   0  0  0  0  0  0  0  0  0  0  0  0
    2.6549   -2.3054    0.0000 C   0  0  0  0  0  0  0  0  0  0  0  0
    1.9009   -2.7110    0.0000 C   0  0  0  0  0  0  0  0  0  0  0  0
    4.0626   -1.4750    0.0000 C   0  0  0  0  0  0  0  0  0  0  0  0
    4.7022   -1.1199    0.0000 C   0  0  0  0  0  0  0  0  0  0  0  0
    4.7625   -0.2608    0.0000 O   0  0  0  0  0  0  0  0  0  0  0  0
    4.0488   -2.2921    0.0000 O   0  0  0  0  0  0  0  0  0  0  0  0
  1  2  2  0  0  0  0
  1 17  1  0  0  0  0
  2  3  1  0  0  0  0
  2  9  1  0  0  0  0
  3  4  1  0  0  0  0
  4  5  1  0  0  0  0
  5  6  1  0  0  0  0
  6  7  1  0  0  0  0
  6 28  1  0  0  0  0
  7  8  1  0  0  0  0
  8  3  1  0  0  0  0
  9 15  2  0  0  0  0
 10  9  1  0  0  0  0
 10 11  2  0  0  0  0
 11 12  1  0  0  0  0
 11 13  1  0  0  0  0
 13 14  2  0  0  0  0
 15 14  1  0  0  0  0
 15 16  1  0  0  0  0
 17 16  2  0  0  0  0
 18 19  1  0  0  0  0
 19 20  2  0  0  0  0
 19 26  1  0  0  0  0
 20 21  1  0  0  0  0
 21 23  2  0  0  0  0
 22 21  1  0  0  0  0
 23 24  1  0  0  0  0
 25 23  1  0  0  0  0
 26 25  2  0  0  0  0
 27 24  1  0  0  0  0
 27 28  1  0  0  0  0
 28 29  2  0  0  0  0
 30 27  2  0  0  0  0
M  END
> <ID>
SCHEMBL21138425

> <InChIKey>
ODDDOPZHYFUQGJ-UHFFFAOYSA-N

> <MW>
425.89

> <Series_Name>
Series_12

$$$$
SCHEMBL21138428
  Mrv1719007171911172D 0   0.00000     0.00000     0

 33 36  0  0  0  0              1 V2000 
    8.7075   -2.7083    0.0000 C   0  0  0  0  0  0  0  0  0  0  0  0
    8.7079   -3.5442    0.0000 C   0  0  0  0  0  0  0  0  0  0  0  0
    7.9908   -2.3028    0.0000 C   0  0  0  0  0  0  0  0  0  0  0  0
    7.2672   -2.7135    0.0000 C   0  0  0  0  0  0  0  0  0  0  0  0
    6.5503   -2.3050    0.0000 C   0  0  0  0  0  0  0  0  0  0  0  0
    6.5414   -1.4968    0.0000 N   0  0  0  0  0  0  0  0  0  0  0  0
    7.2717   -1.0721    0.0000 C   0  0  0  0  0  0  0  0  0  0  0  0
    7.9880   -1.4785    0.0000 C   0  0  0  0  0  0  0  0  0  0  0  0
    9.4159   -2.3024    0.0000 C   0  0  0  0  0  0  0  0  0  0  0  0
    9.4215   -1.4823    0.0000 C   0  0  0  0  0  0  0  0  0  0  0  0
   10.1384   -1.0699    0.0000 C   0  0  0  0  0  0  0  0  0  0  0  0
   10.1309   -0.2633    0.0000 F   0  0  0  0  0  0  0  0  0  0  0  0
   10.8542   -1.4820    0.0000 C   0  0  0  0  0  0  0  0  0  0  0  0
   10.8542   -2.3012    0.0000 C   0  0  0  0  0  0  0  0  0  0  0  0
   10.1309   -3.5341    0.0000 N   0  0  0  0  0  0  0  0  0  0  0  0
   10.1398   -2.7138    0.0000 C   0  0  0  0  0  0  0  0  0  0  0  0
    9.4158   -3.9317    0.0000 C   0  0  0  0  0  0  0  0  0  0  0  0
    1.5245   -2.7164    0.0000 O   0  0  0  0  0  0  0  0  0  0  0  0
    2.2510   -2.3028    0.0000 C   0  0  0  0  0  0  0  0  0  0  0  0
    2.2538   -1.4787    0.0000 C   0  0  0  0  0  0  0  0  0  0  0  0
    2.9746   -1.0701    0.0000 C   0  0  0  0  0  0  0  0  0  0  0  0
    3.6949   -1.4813    0.0000 C   0  0  0  0  0  0  0  0  0  0  0  0
    4.3933   -0.8454    0.0000 N   0  0  0  0  0  0  0  0  0  0  0  0
    3.6917   -2.3052    0.0000 C   0  0  0  0  0  0  0  0  0  0  0  0
    2.9706   -2.7133    0.0000 C   0  0  0  0  0  0  0  0  0  0  0  0
    1.0168   -2.5161    0.0000 C   0  0  0  0  0  0  0  0  0  0  0  0
    0.4771   -2.5964    0.0000 F   0  0  0  0  0  0  0  0  0  0  0  0
    0.8165   -3.0237    0.0000 F   0  0  0  0  0  0  0  0  0  0  0  0
    0.9365   -1.9763    0.0000 F   0  0  0  0  0  0  0  0  0  0  0  0
    5.1266   -1.4597    0.0000 C   0  0  0  0  0  0  0  0  0  0  0  0
    5.7726   -1.0981    0.0000 C   0  0  0  0  0  0  0  0  0  0  0  0
    5.8208   -0.2633    0.0000 O   0  0  0  0  0  0  0  0  0  0  0  0
    5.1139   -2.3006    0.0000 O   0  0  0  0  0  0  0  0  0  0  0  0
  1  2  2  0  0  0  0
  1  9  1  0  0  0  0
  2 17  1  0  0  0  0
  3  1  1  0  0  0  0
  3  4  1  0  0  0  0
  4  5  1  0  0  0  0
  5  6  1  0  0  0  0
  6 31  1  0  0  0  0
  7  6  1  0  0  0  0
  7  8  1  0  0  0  0
  8  3  1  0  0  0  0
  9 10  1  0  0  0  0
  9 16  2  0  0  0  0
 10 11  2  0  0  0  0
 11 12  1  0  0  0  0
 11 13  1  0  0  0  0
 13 14  2  0  0  0  0
 15 16  1  0  0  0  0
 16 14  1  0  0  0  0
 17 15  2  0  0  0  0
 18 19  1  0  0  0  0
 19 20  2  0  0  0  0
 19 25  1  0  0  0  0
 20 21  1  0  0  0  0
 21 22  2  0  0  0  0
 22 23  1  0  0  0  0
 24 22  1  0  0  0  0
 25 24  2  0  0  0  0
 26 27  1  0  0  0  0
 26 28  1  0  0  0  0
 26 29  1  0  0  0  0
 26 18  1  0  0  0  0
 30 23  1  0  0  0  0
 30 31  1  0  0  0  0
 31 32  2  0  0  0  0
 33 30  2  0  0  0  0
M  END
> <ID>
SCHEMBL21138428

> <InChIKey>
LQUIJAHZAPNSTM-UHFFFAOYSA-N

> <MW>
461.417

> <Series_Name>
Series_12

$$$$
SCHEMBL21138429
  Mrv1719007171911172D 0   0.00000     0.00000     0

 33 36  0  0  0  0              1 V2000 
    8.7195   -2.7105    0.0000 C   0  0  0  0  0  0  0  0  0  0  0  0
    8.7204   -3.5350    0.0000 C   0  0  0  0  0  0  0  0  0  0  0  0
    8.0040   -2.3070    0.0000 C   0  0  0  0  0  0  0  0  0  0  0  0
    7.2794   -2.7090    0.0000 C   0  0  0  0  0  0  0  0  0  0  0  0
    6.5621   -2.3091    0.0000 C   0  0  0  0  0  0  0  0  0  0  0  0
    6.5508   -1.4850    0.0000 N   0  0  0  0  0  0  0  0  0  0  0  0
    7.2758   -1.0686    0.0000 C   0  0  0  0  0  0  0  0  0  0  0  0
    7.9994   -1.4806    0.0000 C   0  0  0  0  0  0  0  0  0  0  0  0
    9.4272   -2.3068    0.0000 C   0  0  0  0  0  0  0  0  0  0  0  0
    9.4350   -1.4844    0.0000 C   0  0  0  0  0  0  0  0  0  0  0  0
   10.1528   -1.0714    0.0000 C   0  0  0  0  0  0  0  0  0  0  0  0
   10.1454   -0.2637    0.0000 F   0  0  0  0  0  0  0  0  0  0  0  0
   10.8697   -1.4841    0.0000 C   0  0  0  0  0  0  0  0  0  0  0  0
   10.8697   -2.3048    0.0000 C   0  0  0  0  0  0  0  0  0  0  0  0
   10.1454   -3.5391    0.0000 N   0  0  0  0  0  0  0  0  0  0  0  0
   10.1543   -2.7037    0.0000 C   0  0  0  0  0  0  0  0  0  0  0  0
    9.4291   -3.9374    0.0000 C   0  0  0  0  0  0  0  0  0  0  0  0
    1.5267   -2.7203    0.0000 S   0  0  0  0  0  0  0  0  0  0  0  0
    2.2543   -2.3057    0.0000 C   0  0  0  0  0  0  0  0  0  0  0  0
    2.2570   -1.4807    0.0000 C   0  0  0  0  0  0  0  0  0  0  0  0
    2.9789   -1.0716    0.0000 C   0  0  0  0  0  0  0  0  0  0  0  0
    3.7002   -1.4834    0.0000 C   0  0  0  0  0  0  0  0  0  0  0  0
    4.3996   -0.8466    0.0000 N   0  0  0  0  0  0  0  0  0  0  0  0
    3.6970   -2.3084    0.0000 C   0  0  0  0  0  0  0  0  0  0  0  0
    2.9770   -2.7090    0.0000 C   0  0  0  0  0  0  0  0  0  0  0  0
    1.0207   -2.5137    0.0000 C   0  0  0  0  0  0  0  0  0  0  0  0
    0.4792   -2.5878    0.0000 F   0  0  0  0  0  0  0  0  0  0  0  0
    0.8141   -3.0197    0.0000 F   0  0  0  0  0  0  0  0  0  0  0  0
    0.9465   -1.9722    0.0000 F   0  0  0  0  0  0  0  0  0  0  0  0
    5.2097   -1.4578    0.0000 C   0  0  0  0  0  0  0  0  0  0  0  0
    5.8291   -0.2637    0.0000 O   0  0  0  0  0  0  0  0  0  0  0  0
    5.9228   -1.1039    0.0000 C   0  0  0  0  0  0  0  0  0  0  0  0
    5.1213   -2.3039    0.0000 O   0  0  0  0  0  0  0  0  0  0  0  0
  1  2  2  0  0  0  0
  1  9  1  0  0  0  0
  2 17  1  0  0  0  0
  3  1  1  0  0  0  0
  3  4  1  0  0  0  0
  4  5  1  0  0  0  0
  5  6  1  0  0  0  0
  6  7  1  0  0  0  0
  7  8  1  0  0  0  0
  8  3  1  0  0  0  0
  9 10  1  0  0  0  0
  9 16  2  0  0  0  0
 10 11  2  0  0  0  0
 11 12  1  0  0  0  0
 11 13  1  0  0  0  0
 13 14  2  0  0  0  0
 15 16  1  0  0  0  0
 16 14  1  0  0  0  0
 17 15  2  0  0  0  0
 18 19  1  0  0  0  0
 19 20  2  0  0  0  0
 19 25  1  0  0  0  0
 20 21  1  0  0  0  0
 21 22  2  0  0  0  0
 22 23  1  0  0  0  0
 24 22  1  0  0  0  0
 25 24  2  0  0  0  0
 26 27  1  0  0  0  0
 26 28  1  0  0  0  0
 26 29  1  0  0  0  0
 26 18  1  0  0  0  0
 30 23  1  0  0  0  0
 30 32  1  0  0  0  0
 31 32  2  0  0  0  0
 32  6  1  0  0  0  0
 33 30  2  0  0  0  0
M  END
> <ID>
SCHEMBL21138429

> <InChIKey>
GYCFVCOVTDMOII-UHFFFAOYSA-N

> <MW>
477.48

> <Series_Name>
Series_12

$$$$
SCHEMBL21138430
  Mrv1719007171911172D 0   0.00000     0.00000     0

 33 36  0  0  0  0              1 V2000 
    8.7160   -2.7187    0.0000 C   0  0  0  0  0  0  0  0  0  0  0  0
    8.7229   -3.5427    0.0000 C   0  0  0  0  0  0  0  0  0  0  0  0
    8.0022   -2.3064    0.0000 C   0  0  0  0  0  0  0  0  0  0  0  0
    7.2802   -2.7170    0.0000 C   0  0  0  0  0  0  0  0  0  0  0  0
    6.5680   -2.3134    0.0000 C   0  0  0  0  0  0  0  0  0  0  0  0
    6.5495   -1.4986    0.0000 N   0  0  0  0  0  0  0  0  0  0  0  0
    7.3061   -1.1012    0.0000 C   0  0  0  0  0  0  0  0  0  0  0  0
    7.9978   -1.4801    0.0000 C   0  0  0  0  0  0  0  0  0  0  0  0
    9.4444   -1.4801    0.0000 C   0  0  0  0  0  0  0  0  0  0  0  0
    9.4396   -2.3066    0.0000 C   0  0  0  0  0  0  0  0  0  0  0  0
   10.1416   -1.1027    0.0000 C   0  0  0  0  0  0  0  0  0  0  0  0
   10.1573   -0.2636    0.0000 F   0  0  0  0  0  0  0  0  0  0  0  0
   10.8890   -1.4889    0.0000 C   0  0  0  0  0  0  0  0  0  0  0  0
   10.8870   -2.2978    0.0000 C   0  0  0  0  0  0  0  0  0  0  0  0
   10.1435   -3.5523    0.0000 N   0  0  0  0  0  0  0  0  0  0  0  0
   10.1613   -2.7208    0.0000 C   0  0  0  0  0  0  0  0  0  0  0  0
    9.4400   -3.9506    0.0000 C   0  0  0  0  0  0  0  0  0  0  0  0
    1.5437   -2.7151    0.0000 C   0  0  0  0  0  0  0  0  0  0  0  0
    2.2666   -2.3106    0.0000 C   0  0  0  0  0  0  0  0  0  0  0  0
    2.2704   -1.4759    0.0000 C   0  0  0  0  0  0  0  0  0  0  0  0
    2.9714   -1.0832    0.0000 C   0  0  0  0  0  0  0  0  0  0  0  0
    3.6994   -1.4830    0.0000 C   0  0  0  0  0  0  0  0  0  0  0  0
    4.3987   -0.8465    0.0000 N   0  0  0  0  0  0  0  0  0  0  0  0
    3.6962   -2.3079    0.0000 C   0  0  0  0  0  0  0  0  0  0  0  0
    2.9736   -2.7245    0.0000 C   0  0  0  0  0  0  0  0  0  0  0  0
    1.0322   -2.5189    0.0000 C   0  0  0  0  0  0  0  0  0  0  0  0
    0.4910   -2.6048    0.0000 F   0  0  0  0  0  0  0  0  0  0  0  0
    0.8360   -3.0304    0.0000 F   0  0  0  0  0  0  0  0  0  0  0  0
    0.9463   -1.9778    0.0000 F   0  0  0  0  0  0  0  0  0  0  0  0
    5.2068   -1.4592    0.0000 C   0  0  0  0  0  0  0  0  0  0  0  0
    5.7779   -1.1153    0.0000 C   0  0  0  0  0  0  0  0  0  0  0  0
    5.8419   -0.2636    0.0000 O   0  0  0  0  0  0  0  0  0  0  0  0
    5.1202   -2.3173    0.0000 O   0  0  0  0  0  0  0  0  0  0  0  0
  1  2  2  0  0  0  0
  1 10  1  0  0  0  0
  2 17  1  0  0  0  0
  3  1  1  0  0  0  0
  3  4  1  0  0  0  0
  4  5  1  0  0  0  0
  5  6  1  0  0  0  0
  6  7  1  0  0  0  0
  6 31  1  0  0  0  0
  7  8  1  0  0  0  0
  8  3  1  0  0  0  0
  9 10  1  0  0  0  0
  9 11  2  0  0  0  0
 10 16  2  0  0  0  0
 11 12  1  0  0  0  0
 13 11  1  0  0  0  0
 14 13  2  0  0  0  0
 15 16  1  0  0  0  0
 16 14  1  0  0  0  0
 17 15  2  0  0  0  0
 18 19  1  0  0  0  0
 18 26  1  0  0  0  0
 19 20  2  0  0  0  0
 20 21  1  0  0  0  0
 21 22  2  0  0  0  0
 22 23  1  0  0  0  0
 24 22  1  0  0  0  0
 25 24  2  0  0  0  0
 25 19  1  0  0  0  0
 26 27  1  0  0  0  0
 26 28  1  0  0  0  0
 26 29  1  0  0  0  0
 30 23  1  0  0  0  0
 30 31  1  0  0  0  0
 31 32  2  0  0  0  0
 33 30  2  0  0  0  0
M  END
> <ID>
SCHEMBL21138430

> <InChIKey>
WTNWMNFKFNQHFF-UHFFFAOYSA-N

> <MW>
459.445

> <Series_Name>
Series_12

$$$$
SCHEMBL21138727
  Mrv1719007171912492D 0   0.00000     0.00000     0

 31 34  0  0  0  0              1 V2000 
    8.0806   -2.7518    0.0000 C   0  0  0  0  0  0  0  0  0  0  0  0
    8.0834   -3.5900    0.0000 C   0  0  0  0  0  0  0  0  0  0  0  0
    7.3948   -2.3661    0.0000 C   0  0  0  0  0  0  0  0  0  0  0  0
    6.6145   -2.7483    0.0000 C   0  0  0  0  0  0  0  0  0  0  0  0
    5.9390   -2.3586    0.0000 C   0  0  0  0  0  0  0  0  0  0  0  0
    5.9206   -1.5010    0.0000 N   0  0  0  0  0  0  0  0  0  0  0  0
    6.6759   -1.1168    0.0000 C   0  0  0  0  0  0  0  0  0  0  0  0
    7.3711   -1.5104    0.0000 C   0  0  0  0  0  0  0  0  0  0  0  0
    8.8061   -1.5111    0.0000 C   0  0  0  0  0  0  0  0  0  0  0  0
    8.8013   -2.3519    0.0000 C   0  0  0  0  0  0  0  0  0  0  0  0
    9.5151   -1.1116    0.0000 C   0  0  0  0  0  0  0  0  0  0  0  0
    9.5063   -0.2641    0.0000 F   0  0  0  0  0  0  0  0  0  0  0  0
   10.2341   -1.5103    0.0000 C   0  0  0  0  0  0  0  0  0  0  0  0
   10.2315   -2.3500    0.0000 C   0  0  0  0  0  0  0  0  0  0  0  0
    9.5063   -3.5718    0.0000 N   0  0  0  0  0  0  0  0  0  0  0  0
    9.5225   -2.7448    0.0000 C   0  0  0  0  0  0  0  0  0  0  0  0
    8.8060   -3.9979    0.0000 C   0  0  0  0  0  0  0  0  0  0  0  0
    0.1946   -2.3349    0.0000 F   0  0  0  0  0  0  0  0  0  0  0  0
    0.9231   -2.7495    0.0000 C   0  0  0  0  0  0  0  0  0  0  0  0
    1.6356   -2.3637    0.0000 C   0  0  0  0  0  0  0  0  0  0  0  0
    1.6487   -1.5107    0.0000 C   0  0  0  0  0  0  0  0  0  0  0  0
    2.3923   -1.1153    0.0000 C   0  0  0  0  0  0  0  0  0  0  0  0
    3.0798   -1.5133    0.0000 C   0  0  0  0  0  0  0  0  0  0  0  0
    3.7802   -0.8548    0.0000 N   0  0  0  0  0  0  0  0  0  0  0  0
    3.0767   -2.3530    0.0000 C   0  0  0  0  0  0  0  0  0  0  0  0
    2.3169   -2.7441    0.0000 C   0  0  0  0  0  0  0  0  0  0  0  0
    0.9173   -3.5718    0.0000 F   0  0  0  0  0  0  0  0  0  0  0  0
    4.5507   -1.4975    0.0000 C   0  0  0  0  0  0  0  0  0  0  0  0
    5.1494   -1.1275    0.0000 C   0  0  0  0  0  0  0  0  0  0  0  0
    5.2118   -0.2641    0.0000 O   0  0  0  0  0  0  0  0  0  0  0  0
    4.4891   -2.3210    0.0000 O   0  0  0  0  0  0  0  0  0  0  0  0
  1  2  2  0  0  0  0
  1 10  1  0  0  0  0
  2 17  1  0  0  0  0
  3  4  1  0  0  0  0
  3  1  1  0  0  0  0
  4  5  1  0  0  0  0
  5  6  1  0  0  0  0
  6 29  1  0  0  0  0
  7  6  1  0  0  0  0
  7  8  1  0  0  0  0
  8  3  1  0  0  0  0
  9 10  1  0  0  0  0
  9 11  2  0  0  0  0
 10 16  2  0  0  0  0
 11 12  1  0  0  0  0
 13 11  1  0  0  0  0
 14 13  2  0  0  0  0
 15 16  1  0  0  0  0
 16 14  1  0  0  0  0
 17 15  2  0  0  0  0
 18 19  1  0  0  0  0
 19 20  1  0  0  0  0
 20 21  2  0  0  0  0
 20 26  1  0  0  0  0
 21 22  1  0  0  0  0
 22 23  2  0  0  0  0
 23 24  1  0  0  0  0
 25 23  1  0  0  0  0
 26 25  2  0  0  0  0
 27 19  1  0  0  0  0
 28 24  1  0  0  0  0
 28 29  1  0  0  0  0
 29 30  2  0  0  0  0
 31 28  2  0  0  0  0
M  END
> <ID>
SCHEMBL21138727

> <InChIKey>
ZZZZEJJXQQRZBH-UHFFFAOYSA-N

> <MW>
427.427

> <Series_Name>
Series_12

$$$$
SCHEMBL21138728
  Mrv1719007171912492D 0   0.00000     0.00000     0

 31 34  0  0  0  0              1 V2000 
    7.8183   -2.7523    0.0000 C   0  0  0  0  0  0  0  0  0  0  0  0
    7.8193   -3.5911    0.0000 C   0  0  0  0  0  0  0  0  0  0  0  0
    7.1028   -2.3490    0.0000 C   0  0  0  0  0  0  0  0  0  0  0  0
    6.3756   -2.7532    0.0000 C   0  0  0  0  0  0  0  0  0  0  0  0
    5.6721   -2.3485    0.0000 C   0  0  0  0  0  0  0  0  0  0  0  0
    5.6494   -1.4991    0.0000 N   0  0  0  0  0  0  0  0  0  0  0  0
    6.3811   -1.1016    0.0000 C   0  0  0  0  0  0  0  0  0  0  0  0
    7.0982   -1.5086    0.0000 C   0  0  0  0  0  0  0  0  0  0  0  0
    8.5264   -2.3348    0.0000 C   0  0  0  0  0  0  0  0  0  0  0  0
    8.5340   -1.5123    0.0000 C   0  0  0  0  0  0  0  0  0  0  0  0
    9.2495   -1.0991    0.0000 C   0  0  0  0  0  0  0  0  0  0  0  0
    9.2445   -0.2637    0.0000 F   0  0  0  0  0  0  0  0  0  0  0  0
    9.9767   -1.5182    0.0000 C   0  0  0  0  0  0  0  0  0  0  0  0
    9.9689   -2.3326    0.0000 C   0  0  0  0  0  0  0  0  0  0  0  0
    9.2445   -3.5673    0.0000 N   0  0  0  0  0  0  0  0  0  0  0  0
    9.2534   -2.7458    0.0000 C   0  0  0  0  0  0  0  0  0  0  0  0
    8.5222   -3.9931    0.0000 C   0  0  0  0  0  0  0  0  0  0  0  0
    0.8628   -2.5611    0.0000 C   0  0  0  0  0  0  0  0  0  0  0  0
    0.3596   -2.7743    0.0000 N   0  0  0  0  0  0  0  0  0  0  0  0
    1.3660   -2.3479    0.0000 C   0  0  0  0  0  0  0  0  0  0  0  0
    1.3716   -1.5123    0.0000 C   0  0  0  0  0  0  0  0  0  0  0  0
    2.0821   -0.2637    0.0000 F   0  0  0  0  0  0  0  0  0  0  0  0
    2.0860   -1.0997    0.0000 C   0  0  0  0  0  0  0  0  0  0  0  0
    2.8055   -1.5159    0.0000 C   0  0  0  0  0  0  0  0  0  0  0  0
    3.5118   -0.8467    0.0000 N   0  0  0  0  0  0  0  0  0  0  0  0
    2.0938   -2.7413    0.0000 C   0  0  0  0  0  0  0  0  0  0  0  0
    2.8021   -2.3343    0.0000 C   0  0  0  0  0  0  0  0  0  0  0  0
    4.1964   -1.4950    0.0000 C   0  0  0  0  0  0  0  0  0  0  0  0
    4.8757   -1.1321    0.0000 C   0  0  0  0  0  0  0  0  0  0  0  0
    4.9415   -0.2637    0.0000 O   0  0  0  0  0  0  0  0  0  0  0  0
    4.2197   -2.3180    0.0000 O   0  0  0  0  0  0  0  0  0  0  0  0
  1  2  2  0  0  0  0
  1  9  1  0  0  0  0
  2 17  1  0  0  0  0
  3  1  1  0  0  0  0
  3  4  1  0  0  0  0
  4  5  1  0  0  0  0
  5  6  1  0  0  0  0
  6 29  1  0  0  0  0
  7  6  1  0  0  0  0
  7  8  1  0  0  0  0
  8  3  1  0  0  0  0
  9 10  1  0  0  0  0
  9 16  2  0  0  0  0
 10 11  2  0  0  0  0
 11 12  1  0  0  0  0
 11 13  1  0  0  0  0
 14 13  2  0  0  0  0
 15 16  1  0  0  0  0
 16 14  1  0  0  0  0
 17 15  2  0  0  0  0
 18 19  3  0  0  0  0
 18 20  1  0  0  0  0
 20 21  2  0  0  0  0
 20 26  1  0  0  0  0
 21 23  1  0  0  0  0
 22 23  1  0  0  0  0
 23 24  2  0  0  0  0
 24 25  1  0  0  0  0
 25 28  1  0  0  0  0
 26 27  2  0  0  0  0
 27 24  1  0  0  0  0
 28 31  2  0  0  0  0
 29 30  2  0  0  0  0
 29 28  1  0  0  0  0
M  END
> <ID>
SCHEMBL21138728

> <InChIKey>
BEIZQHLYPDNELB-UHFFFAOYSA-N

> <MW>
420.42

> <Series_Name>
Series_12

$$$$
SCHEMBL21138729
  Mrv1719007171912492D 0   0.00000     0.00000     0

 30 33  0  0  0  0              1 V2000 
    8.0295   -2.7461    0.0000 C   0  0  0  0  0  0  0  0  0  0  0  0
    8.0325   -3.5852    0.0000 C   0  0  0  0  0  0  0  0  0  0  0  0
    6.5947   -2.7462    0.0000 C   0  0  0  0  0  0  0  0  0  0  0  0
    5.8907   -2.3421    0.0000 C   0  0  0  0  0  0  0  0  0  0  0  0
    5.8721   -1.4993    0.0000 N   0  0  0  0  0  0  0  0  0  0  0  0
    7.3157   -2.3453    0.0000 C   0  0  0  0  0  0  0  0  0  0  0  0
    7.3203   -1.5192    0.0000 C   0  0  0  0  0  0  0  0  0  0  0  0
    6.6277   -1.1175    0.0000 C   0  0  0  0  0  0  0  0  0  0  0  0
    8.7408   -2.3474    0.0000 C   0  0  0  0  0  0  0  0  0  0  0  0
    8.7544   -1.5089    0.0000 C   0  0  0  0  0  0  0  0  0  0  0  0
    9.4398   -1.1164    0.0000 C   0  0  0  0  0  0  0  0  0  0  0  0
    9.4537   -0.2638    0.0000 F   0  0  0  0  0  0  0  0  0  0  0  0
   10.1860   -1.5184    0.0000 C   0  0  0  0  0  0  0  0  0  0  0  0
   10.1781   -2.3328    0.0000 C   0  0  0  0  0  0  0  0  0  0  0  0
    9.4637   -2.7453    0.0000 C   0  0  0  0  0  0  0  0  0  0  0  0
    9.4537   -3.5677    0.0000 N   0  0  0  0  0  0  0  0  0  0  0  0
    8.7374   -3.9802    0.0000 C   0  0  0  0  0  0  0  0  0  0  0  0
    0.5553   -2.7348    0.0000 C   0  0  0  0  0  0  0  0  0  0  0  0
    1.5900   -2.3524    0.0000 C   0  0  0  0  0  0  0  0  0  0  0  0
    1.6051   -1.5094    0.0000 C   0  0  0  0  0  0  0  0  0  0  0  0
    2.2910   -1.1165    0.0000 C   0  0  0  0  0  0  0  0  0  0  0  0
    2.3044   -0.2638    0.0000 F   0  0  0  0  0  0  0  0  0  0  0  0
    3.0348   -1.5119    0.0000 C   0  0  0  0  0  0  0  0  0  0  0  0
    3.7343   -0.8468    0.0000 N   0  0  0  0  0  0  0  0  0  0  0  0
    3.0315   -2.3368    0.0000 C   0  0  0  0  0  0  0  0  0  0  0  0
    2.3093   -2.7456    0.0000 C   0  0  0  0  0  0  0  0  0  0  0  0
    4.3817   -1.4915    0.0000 C   0  0  0  0  0  0  0  0  0  0  0  0
    5.1019   -1.1263    0.0000 C   0  0  0  0  0  0  0  0  0  0  0  0
    5.1641   -0.2638    0.0000 O   0  0  0  0  0  0  0  0  0  0  0  0
    4.4423   -2.3183    0.0000 O   0  0  0  0  0  0  0  0  0  0  0  0
  1  2  2  0  0  0  0
  1  9  1  0  0  0  0
  2 17  1  0  0  0  0
  3  4  1  0  0  0  0
  3  6  1  0  0  0  0
  4  5  1  0  0  0  0
  5  8  1  0  0  0  0
  5 28  1  0  0  0  0
  6  7  1  0  0  0  0
  6  1  1  0  0  0  0
  8  7  1  0  0  0  0
  9 15  2  0  0  0  0
 10  9  1  0  0  0  0
 10 11  2  0  0  0  0
 11 12  1  0  0  0  0
 13 11  1  0  0  0  0
 14 13  2  0  0  0  0
 15 16  1  0  0  0  0
 15 14  1  0  0  0  0
 17 16  2  0  0  0  0
 18 19  1  0  0  0  0
 19 20  2  0  0  0  0
 19 26  1  0  0  0  0
 20 21  1  0  0  0  0
 21 23  2  0  0  0  0
 22 21  1  0  0  0  0
 23 24  1  0  0  0  0
 24 27  1  0  0  0  0
 25 23  1  0  0  0  0
 26 25  2  0  0  0  0
 27 30  2  0  0  0  0
 28 27  1  0  0  0  0
 28 29  2  0  0  0  0
M  END
> <ID>
SCHEMBL21138729

> <InChIKey>
ROPZRHQWKFXYDP-UHFFFAOYSA-N

> <MW>
409.437

> <Series_Name>
Series_12

$$$$
SCHEMBL21138734
  Mrv1719007171912502D 0   0.00000     0.00000     0

 31 34  0  0  1  0              1 V2000 
    7.7291   -6.9714    0.0000 C   0  0  0  0  0  0  0  0  0  0  0  0
    7.7516   -6.1463    0.0000 C   0  0  0  0  0  0  0  0  0  0  0  0
    8.4435   -4.8821    0.0000 C   0  0  0  0  0  0  0  0  0  0  0  0
    8.4409   -5.7243    0.0000 C   0  0  0  0  0  0  0  0  0  0  0  0
    9.1526   -4.4954    0.0000 C   0  0  0  0  0  0  0  0  0  0  0  0
    9.1594   -3.6563    0.0000 F   0  0  0  0  0  0  0  0  0  0  0  0
    9.8752   -4.8816    0.0000 C   0  0  0  0  0  0  0  0  0  0  0  0
    9.8802   -5.7203    0.0000 C   0  0  0  0  0  0  0  0  0  0  0  0
    9.1408   -6.9582    0.0000 N   0  0  0  0  0  0  0  0  0  0  0  0
    9.1644   -6.1277    0.0000 C   0  0  0  0  0  0  0  0  0  0  0  0
    8.4353   -7.3642    0.0000 C   0  0  0  0  0  0  0  0  0  0  0  0
    5.5404   -4.9061    0.0000 N   0  0  0  0  0  0  0  0  0  0  0  0
    5.5800   -5.7119    0.0000 C   0  0  0  0  0  0  0  0  0  0  0  0
    6.2992   -6.1412    0.0000 C   0  0  1  0  0  0  0  0  0  0  0  0
    7.0074   -5.7203    0.0000 C   0  0  1  0  0  0  0  0  0  0  0  0
    6.3130   -4.5023    0.0000 C   0  0  0  0  0  0  0  0  0  0  0  0
    7.0024   -4.8820    0.0000 C   0  0  0  0  0  0  0  0  0  0  0  0
    6.4824   -6.9582    0.0000 O   0  0  0  0  0  0  0  0  0  0  0  0
    1.2765   -5.7273    0.0000 C   0  0  0  0  0  0  0  0  0  0  0  0
    0.4137   -6.1374    0.0000 Cl  0  0  0  0  0  0  0  0  0  0  0  0
    1.2746   -4.8744    0.0000 C   0  0  0  0  0  0  0  0  0  0  0  0
    2.0351   -4.5074    0.0000 C   0  0  0  0  0  0  0  0  0  0  0  0
    2.7101   -4.8836    0.0000 C   0  0  0  0  0  0  0  0  0  0  0  0
    3.3951   -4.2439    0.0000 N   0  0  0  0  0  0  0  0  0  0  0  0
    2.7165   -5.7081    0.0000 C   0  0  0  0  0  0  0  0  0  0  0  0
    1.9817   -6.1303    0.0000 C   0  0  0  0  0  0  0  0  0  0  0  0
    4.1996   -4.8581    0.0000 C   0  0  0  0  0  0  0  0  0  0  0  0
    4.7836   -4.5053    0.0000 C   0  0  0  0  0  0  0  0  0  0  0  0
    4.8316   -3.6563    0.0000 O   0  0  0  0  0  0  0  0  0  0  0  0
    4.1227   -5.7269    0.0000 O   0  0  0  0  0  0  0  0  0  0  0  0
    6.5316   -5.4310    0.0000 C   0  0  0  0  0  0  0  0  0  0  0  0
  1  2  2  0  0  0  0
  1 11  1  0  0  0  0
  2  4  1  0  0  0  0
  3  4  1  0  0  0  0
  3  5  2  0  0  0  0
  4 10  2  0  0  0  0
  5  6  1  0  0  0  0
  5  7  1  0  0  0  0
  7  8  2  0  0  0  0
  9 10  1  0  0  0  0
 10  8  1  0  0  0  0
 11  9  2  0  0  0  0
 12 13  1  0  0  0  0
 12 16  1  0  0  0  0
 12 28  1  0  0  0  0
 14 13  1  0  0  0  0
 14 15  1  0  0  0  0
 14 18  1  1  0  0  0
 15  2  1  0  0  0  0
 15 31  1  6  0  0  0
 16 17  1  0  0  0  0
 15 17  1  0  0  0  0
 19 20  1  0  0  0  0
 19 26  1  0  0  0  0
 21 19  2  0  0  0  0
 21 22  1  0  0  0  0
 22 23  2  0  0  0  0
 23 24  1  0  0  0  0
 25 23  1  0  0  0  0
 26 25  2  0  0  0  0
 27 24  1  0  0  0  0
 27 28  1  0  0  0  0
 28 29  2  0  0  0  0
 30 27  2  0  0  0  0
M  END
> <ID>
SCHEMBL21138734

> <InChIKey>
VFCFGLZELZIMTM-REWPJTCUSA-N

> <MW>
441.89

> <Series_Name>
Series_12

$$$$
SCHEMBL21138830
  Mrv1719007171913352D 0   0.00000     0.00000     0

 31 34  0  0  0  0              1 V2000 
    7.6752   -2.7402    0.0000 C   0  0  0  0  0  0  0  0  0  0  0  0
    7.6822   -3.5774    0.0000 C   0  0  0  0  0  0  0  0  0  0  0  0
    6.9621   -2.3432    0.0000 C   0  0  0  0  0  0  0  0  0  0  0  0
    6.2480   -2.7339    0.0000 C   0  0  0  0  0  0  0  0  0  0  0  0
    5.5354   -2.3436    0.0000 C   0  0  0  0  0  0  0  0  0  0  0  0
    5.5127   -1.4959    0.0000 N   0  0  0  0  0  0  0  0  0  0  0  0
    6.2429   -1.0993    0.0000 C   0  0  0  0  0  0  0  0  0  0  0  0
    6.9585   -1.5054    0.0000 C   0  0  0  0  0  0  0  0  0  0  0  0
    8.3959   -2.3374    0.0000 C   0  0  0  0  0  0  0  0  0  0  0  0
    8.4051   -1.5090    0.0000 C   0  0  0  0  0  0  0  0  0  0  0  0
    9.1050   -1.0964    0.0000 C   0  0  0  0  0  0  0  0  0  0  0  0
    9.1002   -0.2632    0.0000 F   0  0  0  0  0  0  0  0  0  0  0  0
    9.8256   -1.5053    0.0000 C   0  0  0  0  0  0  0  0  0  0  0  0
    9.8230   -2.3418    0.0000 C   0  0  0  0  0  0  0  0  0  0  0  0
    9.1002   -3.5598    0.0000 N   0  0  0  0  0  0  0  0  0  0  0  0
    9.1089   -2.7398    0.0000 C   0  0  0  0  0  0  0  0  0  0  0  0
    8.3903   -3.9850    0.0000 C   0  0  0  0  0  0  0  0  0  0  0  0
    1.2387   -2.3425    0.0000 C   0  0  0  0  0  0  0  0  0  0  0  0
    1.9592   -2.7444    0.0000 C   0  0  0  0  0  0  0  0  0  0  0  0
    0.3836   -2.7356    0.0000 Cl  0  0  0  0  0  0  0  0  0  0  0  0
    1.2414   -1.5053    0.0000 C   0  0  0  0  0  0  0  0  0  0  0  0
    1.9385   -1.1136    0.0000 C   0  0  0  0  0  0  0  0  0  0  0  0
    1.9392   -0.2632    0.0000 F   0  0  0  0  0  0  0  0  0  0  0  0
    2.6673   -1.5077    0.0000 C   0  0  0  0  0  0  0  0  0  0  0  0
    3.3797   -0.8449    0.0000 N   0  0  0  0  0  0  0  0  0  0  0  0
    2.6620   -2.3408    0.0000 C   0  0  0  0  0  0  0  0  0  0  0  0
    1.9392   -3.5598    0.0000 F   0  0  0  0  0  0  0  0  0  0  0  0
    4.1743   -1.4828    0.0000 C   0  0  0  0  0  0  0  0  0  0  0  0
    4.7407   -1.1293    0.0000 C   0  0  0  0  0  0  0  0  0  0  0  0
    4.8063   -0.2632    0.0000 O   0  0  0  0  0  0  0  0  0  0  0  0
    4.0861   -2.3270    0.0000 O   0  0  0  0  0  0  0  0  0  0  0  0
  1  2  2  0  0  0  0
  1  9  1  0  0  0  0
  2 17  1  0  0  0  0
  3  1  1  0  0  0  0
  4  5  1  0  0  0  0
  4  3  1  0  0  0  0
  5  6  1  0  0  0  0
  6 29  1  0  0  0  0
  7  6  1  0  0  0  0
  7  8  1  0  0  0  0
  8  3  1  0  0  0  0
  9 10  1  0  0  0  0
  9 16  2  0  0  0  0
 10 11  2  0  0  0  0
 11 12  1  0  0  0  0
 11 13  1  0  0  0  0
 14 13  2  0  0  0  0
 15 16  1  0  0  0  0
 16 14  1  0  0  0  0
 17 15  2  0  0  0  0
 18 19  1  0  0  0  0
 18 21  2  0  0  0  0
 19 26  2  0  0  0  0
 20 18  1  0  0  0  0
 21 22  1  0  0  0  0
 22 24  2  0  0  0  0
 23 22  1  0  0  0  0
 24 25  1  0  0  0  0
 26 24  1  0  0  0  0
 27 19  1  0  0  0  0
 28 25  1  0  0  0  0
 28 29  1  0  0  0  0
 29 30  2  0  0  0  0
 31 28  2  0  0  0  0
M  END
> <ID>
SCHEMBL21138830

> <InChIKey>
GDWPLJVKPOOJJY-UHFFFAOYSA-N

> <MW>
447.84

> <Series_Name>
Series_12

$$$$
SCHEMBL21138831
  Mrv1719007171913352D 0   0.00000     0.00000     0

 33 36  0  0  0  0              1 V2000 
    8.0011   -2.7526    0.0000 C   0  0  0  0  0  0  0  0  0  0  0  0
    8.0035   -3.5915    0.0000 C   0  0  0  0  0  0  0  0  0  0  0  0
    6.5647   -2.7501    0.0000 C   0  0  0  0  0  0  0  0  0  0  0  0
    5.8485   -2.3403    0.0000 C   0  0  0  0  0  0  0  0  0  0  0  0
    5.8397   -1.5016    0.0000 N   0  0  0  0  0  0  0  0  0  0  0  0
    7.2856   -2.3490    0.0000 C   0  0  0  0  0  0  0  0  0  0  0  0
    7.2902   -1.5216    0.0000 C   0  0  0  0  0  0  0  0  0  0  0  0
    6.5965   -1.1193    0.0000 C   0  0  0  0  0  0  0  0  0  0  0  0
    8.7265   -1.5118    0.0000 C   0  0  0  0  0  0  0  0  0  0  0  0
    8.7373   -2.3531    0.0000 C   0  0  0  0  0  0  0  0  0  0  0  0
    9.4359   -1.1121    0.0000 C   0  0  0  0  0  0  0  0  0  0  0  0
    9.4269   -0.2642    0.0000 F   0  0  0  0  0  0  0  0  0  0  0  0
   10.1552   -1.5110    0.0000 C   0  0  0  0  0  0  0  0  0  0  0  0
   10.1525   -2.3370    0.0000 C   0  0  0  0  0  0  0  0  0  0  0  0
    9.4269   -3.5733    0.0000 N   0  0  0  0  0  0  0  0  0  0  0  0
    9.4435   -2.7460    0.0000 C   0  0  0  0  0  0  0  0  0  0  0  0
    8.6985   -3.9854    0.0000 C   0  0  0  0  0  0  0  0  0  0  0  0
    1.5499   -2.3502    0.0000 C   0  0  0  0  0  0  0  0  0  0  0  0
    1.0384   -2.5423    0.0000 C   0  0  0  0  0  0  0  0  0  0  0  0
    0.6915   -2.9643    0.0000 F   0  0  0  0  0  0  0  0  0  0  0  0
    1.2305   -3.0537    0.0000 F   0  0  0  0  0  0  0  0  0  0  0  0
    0.6164   -2.1954    0.0000 F   0  0  0  0  0  0  0  0  0  0  0  0
    1.5463   -1.5184    0.0000 C   0  0  0  0  0  0  0  0  0  0  0  0
    0.6910   -1.0914    0.0000 Cl  0  0  0  0  0  0  0  0  0  0  0  0
    2.2961   -1.1158    0.0000 C   0  0  0  0  0  0  0  0  0  0  0  0
    2.9840   -1.5143    0.0000 C   0  0  0  0  0  0  0  0  0  0  0  0
    3.6846   -0.8482    0.0000 N   0  0  0  0  0  0  0  0  0  0  0  0
    2.9807   -2.3404    0.0000 C   0  0  0  0  0  0  0  0  0  0  0  0
    2.2573   -2.7499    0.0000 C   0  0  0  0  0  0  0  0  0  0  0  0
    4.4962   -1.4869    0.0000 C   0  0  0  0  0  0  0  0  0  0  0  0
    5.1167   -0.2642    0.0000 O   0  0  0  0  0  0  0  0  0  0  0  0
    5.1831   -1.1286    0.0000 C   0  0  0  0  0  0  0  0  0  0  0  0
    4.4076   -2.3220    0.0000 O   0  0  0  0  0  0  0  0  0  0  0  0
  1  2  2  0  0  0  0
  1 10  1  0  0  0  0
  2 17  1  0  0  0  0
  3  4  1  0  0  0  0
  3  6  1  0  0  0  0
  4  5  1  0  0  0  0
  5  8  1  0  0  0  0
  6  7  1  0  0  0  0
  6  1  1  0  0  0  0
  8  7  1  0  0  0  0
  9 10  1  0  0  0  0
  9 11  2  0  0  0  0
 10 16  2  0  0  0  0
 11 12  1  0  0  0  0
 13 11  1  0  0  0  0
 14 13  2  0  0  0  0
 15 16  1  0  0  0  0
 16 14  1  0  0  0  0
 17 15  2  0  0  0  0
 18 19  1  0  0  0  0
 18 29  1  0  0  0  0
 19 20  1  0  0  0  0
 19 21  1  0  0  0  0
 19 22  1  0  0  0  0
 23 18  2  0  0  0  0
 23 25  1  0  0  0  0
 24 23  1  0  0  0  0
 25 26  2  0  0  0  0
 26 27  1  0  0  0  0
 28 26  1  0  0  0  0
 29 28  2  0  0  0  0
 30 27  1  0  0  0  0
 30 32  1  0  0  0  0
 31 32  2  0  0  0  0
 32  5  1  0  0  0  0
 33 30  2  0  0  0  0
M  END
> <ID>
SCHEMBL21138831

> <InChIKey>
VMGGBWMYBRIISE-UHFFFAOYSA-N

> <MW>
479.86

> <Series_Name>
Series_12

$$$$
SCHEMBL21138832
  Mrv1719007171913352D 0   0.00000     0.00000     0

 33 36  0  0  0  0              1 V2000 
    8.0010   -2.7664    0.0000 C   0  0  0  0  0  0  0  0  0  0  0  0
    8.0034   -3.6057    0.0000 C   0  0  0  0  0  0  0  0  0  0  0  0
    6.5646   -2.7639    0.0000 C   0  0  0  0  0  0  0  0  0  0  0  0
    5.8485   -2.3542    0.0000 C   0  0  0  0  0  0  0  0  0  0  0  0
    5.8396   -1.5155    0.0000 N   0  0  0  0  0  0  0  0  0  0  0  0
    7.2855   -2.3629    0.0000 C   0  0  0  0  0  0  0  0  0  0  0  0
    7.2901   -1.5354    0.0000 C   0  0  0  0  0  0  0  0  0  0  0  0
    6.5964   -1.1332    0.0000 C   0  0  0  0  0  0  0  0  0  0  0  0
    8.7264   -1.5252    0.0000 C   0  0  0  0  0  0  0  0  0  0  0  0
    8.7372   -2.3670    0.0000 C   0  0  0  0  0  0  0  0  0  0  0  0
    9.4245   -1.1287    0.0000 C   0  0  0  0  0  0  0  0  0  0  0  0
    9.4268   -0.2781    0.0000 F   0  0  0  0  0  0  0  0  0  0  0  0
   10.1550   -1.5248    0.0000 C   0  0  0  0  0  0  0  0  0  0  0  0
   10.1524   -2.3508    0.0000 C   0  0  0  0  0  0  0  0  0  0  0  0
    9.4268   -3.5872    0.0000 N   0  0  0  0  0  0  0  0  0  0  0  0
    9.4434   -2.7598    0.0000 C   0  0  0  0  0  0  0  0  0  0  0  0
    8.7230   -4.0001    0.0000 C   0  0  0  0  0  0  0  0  0  0  0  0
    1.5498   -2.3641    0.0000 C   0  0  0  0  0  0  0  0  0  0  0  0
    1.0384   -2.5561    0.0000 C   0  0  0  0  0  0  0  0  0  0  0  0
    0.6916   -2.9783    0.0000 F   0  0  0  0  0  0  0  0  0  0  0  0
    1.2305   -3.0677    0.0000 F   0  0  0  0  0  0  0  0  0  0  0  0
    0.6164   -2.2093    0.0000 F   0  0  0  0  0  0  0  0  0  0  0  0
    1.5460   -1.5324    0.0000 C   0  0  0  0  0  0  0  0  0  0  0  0
    0.8204   -1.0984    0.0000 F   0  0  0  0  0  0  0  0  0  0  0  0
    2.2961   -1.1297    0.0000 C   0  0  0  0  0  0  0  0  0  0  0  0
    2.9840   -1.5281    0.0000 C   0  0  0  0  0  0  0  0  0  0  0  0
    3.6845   -0.8621    0.0000 N   0  0  0  0  0  0  0  0  0  0  0  0
    2.9807   -2.3543    0.0000 C   0  0  0  0  0  0  0  0  0  0  0  0
    2.2573   -2.7637    0.0000 C   0  0  0  0  0  0  0  0  0  0  0  0
    4.4962   -1.5007    0.0000 C   0  0  0  0  0  0  0  0  0  0  0  0
    5.1166   -0.2642    0.0000 O   0  0  0  0  0  0  0  0  0  0  0  0
    5.1682   -1.1425    0.0000 C   0  0  0  0  0  0  0  0  0  0  0  0
    4.4075   -2.3358    0.0000 O   0  0  0  0  0  0  0  0  0  0  0  0
  1  2  2  0  0  0  0
  1 10  1  0  0  0  0
  2 17  1  0  0  0  0
  3  4  1  0  0  0  0
  3  6  1  0  0  0  0
  4  5  1  0  0  0  0
  5  8  1  0  0  0  0
  6  7  1  0  0  0  0
  6  1  1  0  0  0  0
  8  7  1  0  0  0  0
  9 10  1  0  0  0  0
  9 11  2  0  0  0  0
 10 16  2  0  0  0  0
 11 12  1  0  0  0  0
 13 11  1  0  0  0  0
 14 13  2  0  0  0  0
 15 16  1  0  0  0  0
 16 14  1  0  0  0  0
 17 15  2  0  0  0  0
 18 19  1  0  0  0  0
 18 29  1  0  0  0  0
 19 20  1  0  0  0  0
 19 21  1  0  0  0  0
 19 22  1  0  0  0  0
 23 18  2  0  0  0  0
 23 25  1  0  0  0  0
 24 23  1  0  0  0  0
 25 26  2  0  0  0  0
 26 27  1  0  0  0  0
 28 26  1  0  0  0  0
 29 28  2  0  0  0  0
 30 27  1  0  0  0  0
 30 32  1  0  0  0  0
 31 32  2  0  0  0  0
 32  5  1  0  0  0  0
 33 30  2  0  0  0  0
M  END
> <ID>
SCHEMBL21138832

> <InChIKey>
ROQDXLXHLZLLNI-UHFFFAOYSA-N

> <MW>
463.408

> <Series_Name>
Series_12

$$$$
SCHEMBL21138833
  Mrv1719007171913352D 0   0.00000     0.00000     0

 30 33  0  0  0  0              1 V2000 
    7.6920   -2.7602    0.0000 C   0  0  0  0  0  0  0  0  0  0  0  0
    7.6990   -3.5852    0.0000 C   0  0  0  0  0  0  0  0  0  0  0  0
    6.9773   -2.3481    0.0000 C   0  0  0  0  0  0  0  0  0  0  0  0
    6.2618   -2.7526    0.0000 C   0  0  0  0  0  0  0  0  0  0  0  0
    5.5433   -2.3559    0.0000 C   0  0  0  0  0  0  0  0  0  0  0  0
    5.5248   -1.4992    0.0000 N   0  0  0  0  0  0  0  0  0  0  0  0
    6.2505   -1.1054    0.0000 C   0  0  0  0  0  0  0  0  0  0  0  0
    6.9737   -1.5084    0.0000 C   0  0  0  0  0  0  0  0  0  0  0  0
    8.4079   -2.3610    0.0000 C   0  0  0  0  0  0  0  0  0  0  0  0
    8.4234   -1.5123    0.0000 C   0  0  0  0  0  0  0  0  0  0  0  0
    9.1250   -1.0988    0.0000 C   0  0  0  0  0  0  0  0  0  0  0  0
    9.1201   -0.2637    0.0000 F   0  0  0  0  0  0  0  0  0  0  0  0
    9.8471   -1.5085    0.0000 C   0  0  0  0  0  0  0  0  0  0  0  0
    9.8445   -2.3466    0.0000 C   0  0  0  0  0  0  0  0  0  0  0  0
    9.1301   -2.7590    0.0000 C   0  0  0  0  0  0  0  0  0  0  0  0
    9.1201   -3.5675    0.0000 N   0  0  0  0  0  0  0  0  0  0  0  0
    8.4086   -3.9937    0.0000 C   0  0  0  0  0  0  0  0  0  0  0  0
    1.2415   -2.3477    0.0000 C   0  0  0  0  0  0  0  0  0  0  0  0
    0.3844   -2.7416    0.0000 Cl  0  0  0  0  0  0  0  0  0  0  0  0
    1.2404   -1.5128    0.0000 C   0  0  0  0  0  0  0  0  0  0  0  0
    0.5136   -1.0967    0.0000 F   0  0  0  0  0  0  0  0  0  0  0  0
    1.9470   -1.1105    0.0000 C   0  0  0  0  0  0  0  0  0  0  0  0
    2.6761   -1.5101    0.0000 C   0  0  0  0  0  0  0  0  0  0  0  0
    3.3871   -0.8538    0.0000 N   0  0  0  0  0  0  0  0  0  0  0  0
    2.6704   -2.3498    0.0000 C   0  0  0  0  0  0  0  0  0  0  0  0
    1.9656   -2.7545    0.0000 C   0  0  0  0  0  0  0  0  0  0  0  0
    4.1815   -1.4874    0.0000 C   0  0  0  0  0  0  0  0  0  0  0  0
    4.7558   -1.1330    0.0000 C   0  0  0  0  0  0  0  0  0  0  0  0
    4.8169   -0.2637    0.0000 O   0  0  0  0  0  0  0  0  0  0  0  0
    4.0950   -2.3321    0.0000 O   0  0  0  0  0  0  0  0  0  0  0  0
  1  2  2  0  0  0  0
  1  9  1  0  0  0  0
  2 17  1  0  0  0  0
  3  1  1  0  0  0  0
  4  5  1  0  0  0  0
  4  3  1  0  0  0  0
  5  6  1  0  0  0  0
  6  7  1  0  0  0  0
  6 28  1  0  0  0  0
  7  8  1  0  0  0  0
  8  3  1  0  0  0  0
  9 15  2  0  0  0  0
 10  9  1  0  0  0  0
 10 11  2  0  0  0  0
 11 12  1  0  0  0  0
 11 13  1  0  0  0  0
 14 13  2  0  0  0  0
 15 16  1  0  0  0  0
 15 14  1  0  0  0  0
 17 16  2  0  0  0  0
 18 19  1  0  0  0  0
 18 26  1  0  0  0  0
 20 18  2  0  0  0  0
 20 22  1  0  0  0  0
 21 20  1  0  0  0  0
 22 23  2  0  0  0  0
 23 24  1  0  0  0  0
 25 23  1  0  0  0  0
 26 25  2  0  0  0  0
 27 24  1  0  0  0  0
 27 28  1  0  0  0  0
 28 29  2  0  0  0  0
 30 27  2  0  0  0  0
M  END
> <ID>
SCHEMBL21138833

> <InChIKey>
LFJNGHRXZHYDBV-UHFFFAOYSA-N

> <MW>
429.85

> <Series_Name>
Series_12

$$$$
SCHEMBL21138837
  Mrv1719007171913362D 0   0.00000     0.00000     0

 32 35  0  0  1  0              1 V2000 
    7.7129   -3.5933    0.0000 C   0  0  0  0  0  0  0  0  0  0  0  0
    7.7406   -2.7744    0.0000 C   0  0  0  0  0  0  0  0  0  0  0  0
    8.4305   -1.5102    0.0000 C   0  0  0  0  0  0  0  0  0  0  0  0
    8.4049   -2.3670    0.0000 C   0  0  0  0  0  0  0  0  0  0  0  0
    9.1225   -1.1231    0.0000 C   0  0  0  0  0  0  0  0  0  0  0  0
    9.1383   -0.2711    0.0000 F   0  0  0  0  0  0  0  0  0  0  0  0
    9.8619   -1.5102    0.0000 C   0  0  0  0  0  0  0  0  0  0  0  0
    9.8589   -2.3451    0.0000 C   0  0  0  0  0  0  0  0  0  0  0  0
    9.1497   -2.7555    0.0000 C   0  0  0  0  0  0  0  0  0  0  0  0
    9.1223   -3.6043    0.0000 N   0  0  0  0  0  0  0  0  0  0  0  0
    8.4267   -3.9983    0.0000 C   0  0  0  0  0  0  0  0  0  0  0  0
    0.3937   -2.7750    0.0000 Cl  0  0  0  0  0  0  0  0  0  0  0  0
    1.2387   -2.3676    0.0000 C   0  0  0  0  0  0  0  0  0  0  0  0
    1.2539   -1.5102    0.0000 C   0  0  0  0  0  0  0  0  0  0  0  0
    2.0115   -1.1203    0.0000 C   0  0  0  0  0  0  0  0  0  0  0  0
    2.6886   -1.5129    0.0000 C   0  0  0  0  0  0  0  0  0  0  0  0
    3.3810   -0.8612    0.0000 N   0  0  0  0  0  0  0  0  0  0  0  0
    2.6853   -2.3493    0.0000 C   0  0  0  0  0  0  0  0  0  0  0  0
    1.9672   -2.7555    0.0000 C   0  0  0  0  0  0  0  0  0  0  0  0
    5.5601   -2.3495    0.0000 C   0  0  0  0  0  0  0  0  0  0  0  0
    5.5340   -1.5150    0.0000 N   0  0  0  0  0  0  0  0  0  0  0  0
    6.3052   -1.1221    0.0000 C   0  0  0  0  0  0  0  0  0  0  0  0
    6.9912   -1.5102    0.0000 C   0  0  0  0  0  0  0  0  0  0  0  0
    6.9912   -2.3493    0.0000 C   0  0  2  0  0  0  0  0  0  0  0  0
    6.2735   -2.7556    0.0000 C   0  0  1  0  0  0  0  0  0  0  0  0
    4.1417   -1.4912    0.0000 C   0  0  0  0  0  0  0  0  0  0  0  0
    4.7609   -1.1344    0.0000 C   0  0  0  0  0  0  0  0  0  0  0  0
    4.8163   -0.2711    0.0000 O   0  0  0  0  0  0  0  0  0  0  0  0
    4.0987   -2.3444    0.0000 O   0  0  0  0  0  0  0  0  0  0  0  0
    6.2676   -3.5883    0.0000 O   0  0  0  0  0  0  0  0  0  0  0  0
    6.2613   -2.1184    0.0000 C   0  0  0  0  0  0  0  0  0  0  0  0
    6.5142   -2.0547    0.0000 C   0  0  0  0  0  0  0  0  0  0  0  0
  1  2  2  0  0  0  0
  1 11  1  0  0  0  0
  2  4  1  0  0  0  0
  3  4  1  0  0  0  0
  3  5  2  0  0  0  0
  4  9  2  0  0  0  0
  5  6  1  0  0  0  0
  7  5  1  0  0  0  0
  8  7  2  0  0  0  0
  9 10  1  0  0  0  0
  9  8  1  0  0  0  0
 11 10  2  0  0  0  0
 12 13  1  0  0  0  0
 13 14  2  0  0  0  0
 13 19  1  0  0  0  0
 14 15  1  0  0  0  0
 15 16  2  0  0  0  0
 16 17  1  0  0  0  0
 18 16  1  0  0  0  0
 19 18  2  0  0  0  0
 20 21  1  0  0  0  0
 21 22  1  0  0  0  0
 21 27  1  0  0  0  0
 22 23  1  0  0  0  0
 24 23  1  0  0  0  0
 24 25  1  0  0  0  0
 24  2  1  0  0  0  0
 24 32  1  6  0  0  0
 25 20  1  1  0  0  0
 25 30  1  6  0  0  0
 25 31  1  0  0  0  0
 26 17  1  0  0  0  0
 26 27  1  0  0  0  0
 27 28  2  0  0  0  0
 29 26  2  0  0  0  0
M  END
> <ID>
SCHEMBL21138837

> <InChIKey>
BTYJCJXOCOWWAM-ZEQRLZLVSA-N

> <MW>
455.91

> <Series_Name>
Series_12

$$$$
SCHEMBL21146621
  Mrv1719007181910542D 0   0.00000     0.00000     0

 34 37  0  0  1  0              1 V2000 
    2.2831   -7.7532    0.0000 C   0  0  0  0  0  0  0  0  0  0  0  0
    1.5532   -7.3644    0.0000 C   0  0  0  0  0  0  0  0  0  0  0  0
    0.8201   -7.7359    0.0000 F   0  0  0  0  0  0  0  0  0  0  0  0
    1.5677   -6.5138    0.0000 C   0  0  0  0  0  0  0  0  0  0  0  0
    2.2142   -6.0958    0.0000 N   0  0  0  0  0  0  0  0  0  0  0  0
    2.9958   -7.3557    0.0000 C   0  0  0  0  0  0  0  0  0  0  0  0
    2.9897   -6.5274    0.0000 C   0  0  0  0  0  0  0  0  0  0  0  0
    3.6629   -7.7359    0.0000 F   0  0  0  0  0  0  0  0  0  0  0  0
    2.4602   -8.5559    0.0000 O   0  0  0  0  0  0  0  0  0  0  0  0
    5.7950   -4.9203    0.0000 N   0  0  0  0  0  0  0  0  0  0  0  0
    6.4224   -5.5708    0.0000 C   0  0  0  0  0  0  0  0  0  0  0  0
    5.9760   -6.2714    0.0000 C   0  0  0  0  0  0  0  0  0  0  0  0
    5.1664   -6.0958    0.0000 S   0  0  0  0  0  0  0  0  0  0  0  0
    2.9966   -4.8558    0.0000 C   0  0  0  0  0  0  0  0  0  0  0  0
    2.2766   -5.2861    0.0000 C   0  0  0  0  0  0  0  0  0  0  0  0
    2.3065   -3.6842    0.0000 C   0  0  0  0  0  0  0  0  0  0  0  0
    2.9893   -4.0588    0.0000 C   0  0  0  0  0  0  0  0  0  0  0  0
    1.5581   -4.0456    0.0000 O   0  0  0  0  0  0  0  0  0  0  0  0
    2.2689   -2.7882    0.0000 O   0  0  0  0  0  0  0  0  0  0  0  0
    3.6849   -3.5949    0.0000 C   0  0  1  0  0  0  0  0  0  0  0  0
    4.3463   -4.0456    0.0000 N   0  0  0  0  0  0  0  0  0  0  0  0
    3.6356   -5.5353    0.0000 N   0  0  0  0  0  0  0  0  0  0  0  0
    4.4076   -4.8622    0.0000 C   0  0  0  0  0  0  0  0  0  0  0  0
    5.1538   -5.2949    0.0000 C   0  0  0  0  0  0  0  0  0  0  0  0
    0.8789   -3.6686    0.0000 C   0  0  0  0  0  0  0  0  0  0  0  0
    0.1613   -4.0454    0.0000 C   0  0  0  0  0  0  0  0  0  0  0  0
    2.9856   -1.5660    0.0000 C   0  0  0  0  0  0  0  0  0  0  0  0
    2.9966   -2.4142    0.0000 C   0  0  0  0  0  0  0  0  0  0  0  0
    3.6936   -1.1699    0.0000 C   0  0  0  0  0  0  0  0  0  0  0  0
    3.6629   -0.3280    0.0000 F   0  0  0  0  0  0  0  0  0  0  0  0
    4.4214   -2.4012    0.0000 C   0  0  0  0  0  0  0  0  0  0  0  0
    4.4069   -1.5843    0.0000 C   0  0  0  0  0  0  0  0  0  0  0  0
    5.2255   -2.7950    0.0000 Cl  0  0  0  0  0  0  0  0  0  0  0  0
    3.6866   -2.8125    0.0000 C   0  0  0  0  0  0  0  0  0  0  0  0
  1  2  1  0  0  0  0
  1  6  1  0  0  0  0
  1  9  1  0  0  0  0
  2  4  1  0  0  0  0
  3  2  1  0  0  0  0
  4  5  1  0  0  0  0
  5  7  1  0  0  0  0
  5 15  1  0  0  0  0
  7  6  1  0  0  0  0
  8  6  1  0  0  0  0
 10 11  1  0  0  0  0
 12 11  2  0  0  0  0
 13 12  1  0  0  0  0
 13 24  1  0  0  0  0
 14 15  1  0  0  0  0
 14 22  1  0  0  0  0
 16 17  1  0  0  0  0
 16 18  1  0  0  0  0
 17 14  2  0  0  0  0
 19 16  2  0  0  0  0
 20 17  1  0  0  0  0
 20 21  1  0  0  0  0
 20 34  1  6  0  0  0
 21 23  2  0  0  0  0
 23 22  1  0  0  0  0
 23 24  1  0  0  0  0
 24 10  2  0  0  0  0
 25 18  1  0  0  0  0
 26 25  1  0  0  0  0
 27 28  2  0  0  0  0
 27 29  1  0  0  0  0
 28 34  1  0  0  0  0
 29 32  2  0  0  0  0
 30 29  1  0  0  0  0
 31 32  1  0  0  0  0
 31 33  1  0  0  0  0
 34 31  2  0  0  0  0
M  END
> <ID>
SCHEMBL21146621

> <InChIKey>
QANRSDHNFYQJEZ-XHVMPKOQSA-N

> <MW>
514.95

> <Series_Name>
Series_9

$$$$
SCHEMBL21146622
  Mrv1719007181910542D 0   0.00000     0.00000     0

 34 37  0  0  1  0              1 V2000 
    2.2721   -7.7641    0.0000 C   0  0  0  0  0  0  0  0  0  0  0  0
    1.5519   -7.3525    0.0000 C   0  0  0  0  0  0  0  0  0  0  0  0
    0.8272   -7.7581    0.0000 F   0  0  0  0  0  0  0  0  0  0  0  0
    1.5491   -6.5071    0.0000 C   0  0  0  0  0  0  0  0  0  0  0  0
    2.2248   -6.1038    0.0000 N   0  0  0  0  0  0  0  0  0  0  0  0
    2.9770   -6.5016    0.0000 C   0  0  0  0  0  0  0  0  0  0  0  0
    2.9831   -7.3530    0.0000 C   0  0  0  0  0  0  0  0  0  0  0  0
    3.6509   -7.7581    0.0000 F   0  0  0  0  0  0  0  0  0  0  0  0
    2.4529   -8.5852    0.0000 O   0  0  0  0  0  0  0  0  0  0  0  0
    5.8186   -4.9344    0.0000 N   0  0  0  0  0  0  0  0  0  0  0  0
    6.4383   -5.5814    0.0000 C   0  0  0  0  0  0  0  0  0  0  0  0
    6.0242   -6.2587    0.0000 C   0  0  0  0  0  0  0  0  0  0  0  0
    5.1911   -6.1038    0.0000 S   0  0  0  0  0  0  0  0  0  0  0  0
    2.9788   -4.8663    0.0000 C   0  0  0  0  0  0  0  0  0  0  0  0
    2.2628   -5.2846    0.0000 C   0  0  0  0  0  0  0  0  0  0  0  0
    2.9774   -4.0579    0.0000 C   0  0  0  0  0  0  0  0  0  0  0  0
    2.3552   -3.6851    0.0000 C   0  0  0  0  0  0  0  0  0  0  0  0
    1.5402   -4.0502    0.0000 O   0  0  0  0  0  0  0  0  0  0  0  0
    2.2533   -2.7952    0.0000 O   0  0  0  0  0  0  0  0  0  0  0  0
    3.6784   -3.5960    0.0000 C   0  0  1  0  0  0  0  0  0  0  0  0
    4.3354   -4.0502    0.0000 N   0  0  0  0  0  0  0  0  0  0  0  0
    3.6509   -5.5619    0.0000 N   0  0  0  0  0  0  0  0  0  0  0  0
    4.4027   -4.8719    0.0000 C   0  0  0  0  0  0  0  0  0  0  0  0
    5.1142   -5.3046    0.0000 C   0  0  0  0  0  0  0  0  0  0  0  0
    0.8756   -3.6666    0.0000 C   0  0  0  0  0  0  0  0  0  0  0  0
    0.1679   -4.0500    0.0000 C   0  0  0  0  0  0  0  0  0  0  0  0
    2.9738   -2.4164    0.0000 C   0  0  0  0  0  0  0  0  0  0  0  0
    2.9753   -1.5748    0.0000 C   0  0  0  0  0  0  0  0  0  0  0  0
    3.6890   -1.1645    0.0000 C   0  0  0  0  0  0  0  0  0  0  0  0
    3.6509   -0.3423    0.0000 F   0  0  0  0  0  0  0  0  0  0  0  0
    4.4108   -1.6001    0.0000 C   0  0  0  0  0  0  0  0  0  0  0  0
    4.3965   -2.4250    0.0000 C   0  0  0  0  0  0  0  0  0  0  0  0
    5.2388   -2.8345    0.0000 Br  0  0  0  0  0  0  0  0  0  0  0  0
    3.6866   -2.8280    0.0000 C   0  0  0  0  0  0  0  0  0  0  0  0
  1  2  1  0  0  0  0
  1  9  1  0  0  0  0
  2  3  1  0  0  0  0
  2  4  1  0  0  0  0
  4  5  1  0  0  0  0
  5  6  1  0  0  0  0
  5 15  1  0  0  0  0
  6  7  1  0  0  0  0
  7  1  1  0  0  0  0
  8  7  1  0  0  0  0
 10 11  1  0  0  0  0
 12 11  2  0  0  0  0
 13 12  1  0  0  0  0
 13 24  1  0  0  0  0
 14 15  1  0  0  0  0
 14 22  1  0  0  0  0
 16 14  2  0  0  0  0
 17 16  1  0  0  0  0
 17 18  1  0  0  0  0
 18 25  1  0  0  0  0
 19 17  2  0  0  0  0
 20 16  1  0  0  0  0
 20 21  1  0  0  0  0
 20 34  1  6  0  0  0
 21 23  2  0  0  0  0
 23 24  1  0  0  0  0
 23 22  1  0  0  0  0
 24 10  2  0  0  0  0
 26 25  1  0  0  0  0
 27 28  2  0  0  0  0
 27 34  1  0  0  0  0
 28 29  1  0  0  0  0
 29 31  2  0  0  0  0
 30 29  1  0  0  0  0
 31 32  1  0  0  0  0
 32 33  1  0  0  0  0
 34 32  2  0  0  0  0
M  END
> <ID>
SCHEMBL21146622

> <InChIKey>
BJRQNITWSYFRLL-XHVMPKOQSA-N

> <MW>
559.4

> <Series_Name>
Series_9

$$$$
SCHEMBL21146623
  Mrv1719007181910542D 0   0.00000     0.00000     0

 38 41  0  0  1  0              1 V2000 
   23.9989   -7.4990    0.0000 C   0  0  0  0  0  0  0  0  0  0  0  0
   23.7363   -6.7475    0.0000 C   0  0  0  0  0  0  0  0  0  0  0  0
   22.3138   -7.0230    0.0000 N   0  0  0  0  0  0  0  0  0  0  0  0
   22.9272   -6.4660    0.0000 C   0  0  0  0  0  0  0  0  0  0  0  0
   24.3585   -6.1934    0.0000 N   0  0  0  0  0  0  0  0  0  0  0  0
   24.8073   -7.5175    0.0000 C   0  0  0  0  0  0  0  0  0  0  0  0
   25.0623   -6.7500    0.0000 C   0  0  0  0  0  0  0  0  0  0  0  0
   25.1882   -8.2380    0.0000 F   0  0  0  0  0  0  0  0  0  0  0  0
   19.9579   -7.0527    0.0000 O   0  0  0  0  0  0  0  0  0  0  0  0
   20.9377   -7.3235    0.0000 C   0  0  0  0  0  0  0  0  0  0  0  0
   21.5772   -6.7843    0.0000 C   0  0  0  0  0  0  0  0  0  0  0  0
   22.5035   -7.8614    0.0000 C   0  0  0  0  0  0  0  0  0  0  0  0
   27.9145   -5.0080    0.0000 N   0  0  0  0  0  0  0  0  0  0  0  0
   28.5034   -5.6888    0.0000 C   0  0  0  0  0  0  0  0  0  0  0  0
   28.0681   -6.3814    0.0000 C   0  0  0  0  0  0  0  0  0  0  0  0
   27.2626   -6.1934    0.0000 S   0  0  0  0  0  0  0  0  0  0  0  0
   24.4159   -5.3965    0.0000 C   0  0  0  0  0  0  0  0  0  0  0  0
   25.1066   -4.9621    0.0000 C   0  0  0  0  0  0  0  0  0  0  0  0
   25.1271   -4.1121    0.0000 C   0  0  0  0  0  0  0  0  0  0  0  0
   24.4196   -3.7582    0.0000 C   0  0  0  0  0  0  0  0  0  0  0  0
   23.6473   -4.1190    0.0000 O   0  0  0  0  0  0  0  0  0  0  0  0
   24.3585   -2.8744    0.0000 O   0  0  0  0  0  0  0  0  0  0  0  0
   25.7862   -3.6840    0.0000 C   0  0  1  0  0  0  0  0  0  0  0  0
   26.4625   -4.1190    0.0000 N   0  0  0  0  0  0  0  0  0  0  0  0
   25.7513   -5.6599    0.0000 N   0  0  0  0  0  0  0  0  0  0  0  0
   26.5104   -4.9691    0.0000 C   0  0  0  0  0  0  0  0  0  0  0  0
   27.2130   -5.4162    0.0000 C   0  0  0  0  0  0  0  0  0  0  0  0
   22.9824   -3.7158    0.0000 C   0  0  0  0  0  0  0  0  0  0  0  0
   22.2693   -4.1306    0.0000 C   0  0  0  0  0  0  0  0  0  0  0  0
   25.0776   -2.4502    0.0000 C   0  0  0  0  0  0  0  0  0  0  0  0
   25.0821   -1.5790    0.0000 C   0  0  0  0  0  0  0  0  0  0  0  0
   25.7809   -0.3556    0.0000 F   0  0  0  0  0  0  0  0  0  0  0  0
   25.7960   -1.2084    0.0000 C   0  0  0  0  0  0  0  0  0  0  0  0
   26.5123   -1.5772    0.0000 C   0  0  0  0  0  0  0  0  0  0  0  0
   26.5107   -2.4447    0.0000 C   0  0  0  0  0  0  0  0  0  0  0  0
   27.3119   -2.8818    0.0000 Cl  0  0  0  0  0  0  0  0  0  0  0  0
   25.7875   -2.8965    0.0000 C   0  0  0  0  0  0  0  0  0  0  0  0
   21.1285   -8.1491    0.0000 O   0  0  0  0  0  0  0  0  0  0  0  0
  1  2  1  0  0  0  0
  1  6  1  0  0  0  0
  3  4  1  0  0  0  0
  3 12  1  0  0  0  0
  4  2  1  0  0  0  0
  5  2  1  0  0  0  0
  5  7  1  0  0  0  0
  7  6  1  0  0  0  0
  8  6  1  0  0  0  0
  9 10  1  0  0  0  0
 10 38  2  0  0  0  0
 11  3  1  0  0  0  0
 11 10  1  0  0  0  0
 13 14  1  0  0  0  0
 15 14  2  0  0  0  0
 16 15  1  0  0  0  0
 16 27  1  0  0  0  0
 17 18  1  0  0  0  0
 17  5  1  0  0  0  0
 18 19  2  0  0  0  0
 19 20  1  0  0  0  0
 23 19  1  0  0  0  0
 20 21  1  0  0  0  0
 22 20  2  0  0  0  0
 23 24  1  0  0  0  0
 23 37  1  6  0  0  0
 24 26  2  0  0  0  0
 25 18  1  0  0  0  0
 26 25  1  0  0  0  0
 26 27  1  0  0  0  0
 27 13  2  0  0  0  0
 28 21  1  0  0  0  0
 29 28  1  0  0  0  0
 30 31  2  0  0  0  0
 30 37  1  0  0  0  0
 31 33  1  0  0  0  0
 32 33  1  0  0  0  0
 33 34  2  0  0  0  0
 35 34  1  0  0  0  0
 35 36  1  0  0  0  0
 37 35  2  0  0  0  0
M  END
> <ID>
SCHEMBL21146623

> <InChIKey>
RLFSLUIBQZDTAJ-LGHDPPOTSA-N

> <MW>
568.04

> <Series_Name>
Series_4

$$$$
SCHEMBL21146624
  Mrv1719007181910542D 0   0.00000     0.00000     0

 37 40  0  0  1  0              1 V2000 
    2.3166   -8.6717    0.0000 O   0  0  0  0  0  0  0  0  0  0  0  0
    3.0582   -9.1189    0.0000 C   0  0  0  0  0  0  0  0  0  0  0  0
    3.3908   -9.5507    0.0000 C   0  0  0  0  0  0  0  0  0  0  0  0
    3.1833  -10.0546    0.0000 O   0  0  0  0  0  0  0  0  0  0  0  0
    3.9310   -9.4784    0.0000 O   0  0  0  0  0  0  0  0  0  0  0  0
    2.3236   -7.8323    0.0000 C   0  0  0  0  0  0  0  0  0  0  0  0
    1.6036   -7.4411    0.0000 C   0  0  0  0  0  0  0  0  0  0  0  0
    1.6163   -6.5764    0.0000 C   0  0  0  0  0  0  0  0  0  0  0  0
    2.2853   -6.1672    0.0000 N   0  0  0  0  0  0  0  0  0  0  0  0
    3.0498   -7.4414    0.0000 C   0  0  0  0  0  0  0  0  0  0  0  0
    3.0582   -6.5828    0.0000 C   0  0  0  0  0  0  0  0  0  0  0  0
    3.7567   -7.8577    0.0000 F   0  0  0  0  0  0  0  0  0  0  0  0
    5.9481   -5.0090    0.0000 N   0  0  0  0  0  0  0  0  0  0  0  0
    6.5446   -5.6300    0.0000 C   0  0  0  0  0  0  0  0  0  0  0  0
    6.1444   -6.3373    0.0000 C   0  0  0  0  0  0  0  0  0  0  0  0
    5.2594   -6.1672    0.0000 S   0  0  0  0  0  0  0  0  0  0  0  0
    3.0493   -4.9663    0.0000 C   0  0  0  0  0  0  0  0  0  0  0  0
    2.3250   -5.3612    0.0000 C   0  0  0  0  0  0  0  0  0  0  0  0
    3.0470   -4.0801    0.0000 C   0  0  0  0  0  0  0  0  0  0  0  0
    2.4003   -3.7175    0.0000 C   0  0  0  0  0  0  0  0  0  0  0  0
    1.5966   -4.1011    0.0000 O   0  0  0  0  0  0  0  0  0  0  0  0
    2.3166   -2.8488    0.0000 O   0  0  0  0  0  0  0  0  0  0  0  0
    3.7780   -3.5990    0.0000 C   0  0  1  0  0  0  0  0  0  0  0  0
    4.4767   -4.1011    0.0000 N   0  0  0  0  0  0  0  0  0  0  0  0
    3.7567   -5.6194    0.0000 N   0  0  0  0  0  0  0  0  0  0  0  0
    4.5154   -4.9755    0.0000 C   0  0  0  0  0  0  0  0  0  0  0  0
    5.2330   -5.3805    0.0000 C   0  0  0  0  0  0  0  0  0  0  0  0
    0.8693   -3.7104    0.0000 C   0  0  0  0  0  0  0  0  0  0  0  0
    0.1607   -4.1196    0.0000 C   0  0  0  0  0  0  0  0  0  0  0  0
    3.0445   -1.6004    0.0000 C   0  0  0  0  0  0  0  0  0  0  0  0
    3.0464   -2.4372    0.0000 C   0  0  0  0  0  0  0  0  0  0  0  0
    3.8037   -1.2173    0.0000 C   0  0  0  0  0  0  0  0  0  0  0  0
    3.7567   -0.3444    0.0000 F   0  0  0  0  0  0  0  0  0  0  0  0
    4.5237   -2.4389    0.0000 C   0  0  0  0  0  0  0  0  0  0  0  0
    4.5150   -1.6279    0.0000 C   0  0  0  0  0  0  0  0  0  0  0  0
    5.3431   -2.8605    0.0000 Br  0  0  0  0  0  0  0  0  0  0  0  0
    3.7795   -2.8905    0.0000 C   0  0  0  0  0  0  0  0  0  0  0  0
  1  2  1  0  0  0  0
  1  6  1  0  0  0  0
  2  3  1  0  0  0  0
  3  4  2  0  0  0  0
  3  5  1  0  0  0  0
  6  7  1  0  0  0  0
  6 10  1  0  0  0  0
  7  8  1  0  0  0  0
  8  9  1  0  0  0  0
  9 11  1  0  0  0  0
  9 18  1  0  0  0  0
 11 10  1  0  0  0  0
 12 10  1  0  0  0  0
 13 14  1  0  0  0  0
 15 14  2  0  0  0  0
 16 15  1  0  0  0  0
 16 27  1  0  0  0  0
 17 18  1  0  0  0  0
 17 25  1  0  0  0  0
 19 17  2  0  0  0  0
 20 19  1  0  0  0  0
 20 21  1  0  0  0  0
 22 20  2  0  0  0  0
 23 24  1  0  0  0  0
 23 19  1  0  0  0  0
 23 37  1  6  0  0  0
 24 26  2  0  0  0  0
 26 27  1  0  0  0  0
 26 25  1  0  0  0  0
 27 13  2  0  0  0  0
 28 21  1  0  0  0  0
 28 29  1  0  0  0  0
 30 31  2  0  0  0  0
 30 32  1  0  0  0  0
 31 37  1  0  0  0  0
 32 35  2  0  0  0  0
 33 32  1  0  0  0  0
 34 35  1  0  0  0  0
 34 36  1  0  0  0  0
 37 34  2  0  0  0  0
M  END
> <ID>
SCHEMBL21146624

> <InChIKey>
WHCAXFJLTSPGLD-IAYYMHMVSA-N

> <MW>
599.45

> <Series_Name>
Series_9

$$$$
SCHEMBL21146625
  Mrv1719007181910542D 0   0.00000     0.00000     0

 38 41  0  0  1  0              1 V2000 
    2.0039   -7.6769    0.0000 O   0  0  0  0  0  0  0  0  0  0  0  0
    2.2812   -8.5027    0.0000 C   0  0  0  0  0  0  0  0  0  0  0  0
    3.0109   -8.7092    0.0000 C   0  0  0  0  0  0  0  0  0  0  0  0
    3.4715   -8.0156    0.0000 O   0  0  0  0  0  0  0  0  0  0  0  0
    1.3970   -9.0881    0.0000 O   0  0  0  0  0  0  0  0  0  0  0  0
    4.5299   -6.6354    0.0000 C   0  0  0  0  0  0  0  0  0  0  0  0
    5.1085   -6.1810    0.0000 N   0  0  0  0  0  0  0  0  0  0  0  0
    4.7715   -7.4666    0.0000 C   0  0  0  0  0  0  0  0  0  0  0  0
    5.5947   -7.4699    0.0000 C   0  0  0  0  0  0  0  0  0  0  0  0
    5.8044   -6.6932    0.0000 C   0  0  0  0  0  0  0  0  0  0  0  0
    6.3504   -7.4511    0.0000 F   0  0  0  0  0  0  0  0  0  0  0  0
    5.9553   -8.1567    0.0000 F   0  0  0  0  0  0  0  0  0  0  0  0
    4.2859   -8.1216    0.0000 C   0  0  0  0  0  0  0  0  0  0  0  0
    8.6648   -4.9956    0.0000 N   0  0  0  0  0  0  0  0  0  0  0  0
    9.2627   -5.5904    0.0000 C   0  0  0  0  0  0  0  0  0  0  0  0
    8.8584   -6.3246    0.0000 C   0  0  0  0  0  0  0  0  0  0  0  0
    8.0156   -6.1810    0.0000 S   0  0  0  0  0  0  0  0  0  0  0  0
    5.1443   -5.3425    0.0000 C   0  0  0  0  0  0  0  0  0  0  0  0
    5.8520   -4.9299    0.0000 C   0  0  0  0  0  0  0  0  0  0  0  0
    5.8571   -4.0781    0.0000 C   0  0  0  0  0  0  0  0  0  0  0  0
    5.2295   -3.7180    0.0000 C   0  0  0  0  0  0  0  0  0  0  0  0
    4.4594   -4.0924    0.0000 O   0  0  0  0  0  0  0  0  0  0  0  0
    5.1368   -2.8224    0.0000 O   0  0  0  0  0  0  0  0  0  0  0  0
    6.5460   -3.6225    0.0000 C   0  0  1  0  0  0  0  0  0  0  0  0
    7.2253   -4.0643    0.0000 N   0  0  0  0  0  0  0  0  0  0  0  0
    6.5197   -5.6025    0.0000 N   0  0  0  0  0  0  0  0  0  0  0  0
    7.2685   -4.9332    0.0000 C   0  0  0  0  0  0  0  0  0  0  0  0
    7.9888   -5.3586    0.0000 C   0  0  0  0  0  0  0  0  0  0  0  0
    3.7720   -3.7128    0.0000 C   0  0  0  0  0  0  0  0  0  0  0  0
    3.0728   -4.0634    0.0000 C   0  0  0  0  0  0  0  0  0  0  0  0
    5.8497   -2.4476    0.0000 C   0  0  0  0  0  0  0  0  0  0  0  0
    5.8542   -1.5904    0.0000 C   0  0  0  0  0  0  0  0  0  0  0  0
    6.5479   -0.3387    0.0000 F   0  0  0  0  0  0  0  0  0  0  0  0
    6.5566   -1.1571    0.0000 C   0  0  0  0  0  0  0  0  0  0  0  0
    7.2727   -1.5894    0.0000 C   0  0  0  0  0  0  0  0  0  0  0  0
    7.2714   -2.4465    0.0000 C   0  0  0  0  0  0  0  0  0  0  0  0
    8.0766   -2.8295    0.0000 Cl  0  0  0  0  0  0  0  0  0  0  0  0
    6.5550   -2.8550    0.0000 C   0  0  0  0  0  0  0  0  0  0  0  0
  1  2  2  0  0  0  0
  2  3  1  0  0  0  0
  2  5  1  0  0  0  0
  3  4  1  0  0  0  0
  6  7  1  0  0  0  0
  6  8  1  0  0  0  0
  7 10  1  0  0  0  0
  7 18  1  0  0  0  0
  8 13  1  0  0  0  0
  9 10  1  0  0  0  0
  9 11  1  0  0  0  0
  9  8  1  0  0  0  0
 12  9  1  0  0  0  0
 13  4  1  0  0  0  0
 14 15  1  0  0  0  0
 16 15  2  0  0  0  0
 17 16  1  0  0  0  0
 17 28  1  0  0  0  0
 18 19  1  0  0  0  0
 19 20  2  0  0  0  0
 24 20  1  0  0  0  0
 21 20  1  0  0  0  0
 21 22  1  0  0  0  0
 22 29  1  0  0  0  0
 23 21  2  0  0  0  0
 24 25  1  0  0  0  0
 24 38  1  6  0  0  0
 25 27  2  0  0  0  0
 26 19  1  0  0  0  0
 27 28  1  0  0  0  0
 27 26  1  0  0  0  0
 28 14  2  0  0  0  0
 30 29  1  0  0  0  0
 31 32  2  0  0  0  0
 31 38  1  0  0  0  0
 32 34  1  0  0  0  0
 33 34  1  0  0  0  0
 34 35  2  0  0  0  0
 36 35  1  0  0  0  0
 36 37  1  0  0  0  0
 38 36  2  0  0  0  0
M  END
> <ID>
SCHEMBL21146625

> <InChIKey>
XUJZJQZFAWAXLT-JDOQCHFPSA-N

> <MW>
572.98

> <Series_Name>
Series_4

$$$$
SCHEMBL21146626
  Mrv1719007181910542D 0   0.00000     0.00000     0

 37 40  0  0  1  0              1 V2000 
    3.0805   -9.2953    0.0000 C   0  0  0  0  0  0  0  0  0  0  0  0
    2.2924   -8.8275    0.0000 O   0  0  0  0  0  0  0  0  0  0  0  0
    3.4118   -9.7255    0.0000 C   0  0  0  0  0  0  0  0  0  0  0  0
    3.2049  -10.2274    0.0000 O   0  0  0  0  0  0  0  0  0  0  0  0
    3.9500   -9.6536    0.0000 O   0  0  0  0  0  0  0  0  0  0  0  0
    2.3780   -8.0234    0.0000 C   0  0  0  0  0  0  0  0  0  0  0  0
    1.6295   -7.6081    0.0000 C   0  0  0  0  0  0  0  0  0  0  0  0
    1.6151   -6.7832    0.0000 C   0  0  0  0  0  0  0  0  0  0  0  0
    2.2924   -6.2614    0.0000 N   0  0  0  0  0  0  0  0  0  0  0  0
    3.0893   -7.6135    0.0000 C   0  0  0  0  0  0  0  0  0  0  0  0
    3.1050   -6.7728    0.0000 C   0  0  0  0  0  0  0  0  0  0  0  0
    3.7294   -7.9721    0.0000 F   0  0  0  0  0  0  0  0  0  0  0  0
    5.9534   -5.0638    0.0000 N   0  0  0  0  0  0  0  0  0  0  0  0
    6.5629   -5.7907    0.0000 C   0  0  0  0  0  0  0  0  0  0  0  0
    6.1322   -6.4841    0.0000 C   0  0  0  0  0  0  0  0  0  0  0  0
    5.3033   -6.2614    0.0000 S   0  0  0  0  0  0  0  0  0  0  0  0
    2.3886   -5.4641    0.0000 C   0  0  0  0  0  0  0  0  0  0  0  0
    3.0919   -5.0578    0.0000 C   0  0  0  0  0  0  0  0  0  0  0  0
    3.0920   -4.1918    0.0000 C   0  0  0  0  0  0  0  0  0  0  0  0
    2.4342   -3.8314    0.0000 C   0  0  0  0  0  0  0  0  0  0  0  0
    1.5739   -4.1400    0.0000 O   0  0  0  0  0  0  0  0  0  0  0  0
    2.2924   -2.8741    0.0000 O   0  0  0  0  0  0  0  0  0  0  0  0
    3.7981   -3.6985    0.0000 C   0  0  1  0  0  0  0  0  0  0  0  0
    4.4822   -4.1400    0.0000 N   0  0  0  0  0  0  0  0  0  0  0  0
    3.7637   -5.6797    0.0000 N   0  0  0  0  0  0  0  0  0  0  0  0
    4.5320   -5.0551    0.0000 C   0  0  0  0  0  0  0  0  0  0  0  0
    5.3409   -5.5997    0.0000 C   0  0  0  0  0  0  0  0  0  0  0  0
    0.9128   -3.8093    0.0000 C   0  0  0  0  0  0  0  0  0  0  0  0
    0.2011   -4.1732    0.0000 C   0  0  0  0  0  0  0  0  0  0  0  0
    3.0868   -1.6518    0.0000 C   0  0  0  0  0  0  0  0  0  0  0  0
    3.1007   -2.5437    0.0000 C   0  0  0  0  0  0  0  0  0  0  0  0
    3.8091   -1.2551    0.0000 C   0  0  0  0  0  0  0  0  0  0  0  0
    3.7294   -0.3422    0.0000 F   0  0  0  0  0  0  0  0  0  0  0  0
    4.5395   -1.6517    0.0000 C   0  0  0  0  0  0  0  0  0  0  0  0
    4.5377   -2.5210    0.0000 C   0  0  0  0  0  0  0  0  0  0  0  0
    5.3430   -2.8912    0.0000 Cl  0  0  0  0  0  0  0  0  0  0  0  0
    3.7942   -2.9414    0.0000 C   0  0  0  0  0  0  0  0  0  0  0  0
  1  2  1  0  0  0  0
  1  3  1  0  0  0  0
  3  4  2  0  0  0  0
  3  5  1  0  0  0  0
  6  7  1  0  0  0  0
  6 10  1  0  0  0  0
  6  2  1  0  0  0  0
  7  8  1  0  0  0  0
  8  9  1  0  0  0  0
  9 11  1  0  0  0  0
  9 17  1  0  0  0  0
 11 10  1  0  0  0  0
 12 10  1  0  0  0  0
 13 14  1  0  0  0  0
 15 14  2  0  0  0  0
 16 15  1  0  0  0  0
 16 27  1  0  0  0  0
 17 18  1  0  0  0  0
 18 19  2  0  0  0  0
 19 20  1  0  0  0  0
 23 19  1  0  0  0  0
 20 21  1  0  0  0  0
 22 20  2  0  0  0  0
 23 24  1  0  0  0  0
 23 37  1  6  0  0  0
 24 26  2  0  0  0  0
 25 18  1  0  0  0  0
 26 25  1  0  0  0  0
 26 27  1  0  0  0  0
 27 13  2  0  0  0  0
 28 21  1  0  0  0  0
 28 29  1  0  0  0  0
 30 31  2  0  0  0  0
 30 32  1  0  0  0  0
 31 37  1  0  0  0  0
 32 34  2  0  0  0  0
 33 32  1  0  0  0  0
 35 34  1  0  0  0  0
 35 36  1  0  0  0  0
 37 35  2  0  0  0  0
M  END
> <ID>
SCHEMBL21146626

> <InChIKey>
SEHPWGGZUBIMNC-IAYYMHMVSA-N

> <MW>
554.99

> <Series_Name>
Series_9

$$$$
SCHEMBL21146627
  Mrv1719007181910542D 0   0.00000     0.00000     0

 38 41  0  0  1  0              1 V2000 
    3.0220   -9.1120    0.0000 C   0  0  0  0  0  0  0  0  0  0  0  0
    2.2878   -8.6820    0.0000 O   0  0  0  0  0  0  0  0  0  0  0  0
    3.3465   -9.5505    0.0000 C   0  0  0  0  0  0  0  0  0  0  0  0
    3.1290  -10.0508    0.0000 O   0  0  0  0  0  0  0  0  0  0  0  0
    3.8884   -9.4888    0.0000 O   0  0  0  0  0  0  0  0  0  0  0  0
    1.6069   -7.4450    0.0000 C   0  0  0  0  0  0  0  0  0  0  0  0
    0.8799   -7.8607    0.0000 F   0  0  0  0  0  0  0  0  0  0  0  0
    1.5931   -6.5740    0.0000 C   0  0  0  0  0  0  0  0  0  0  0  0
    2.2585   -6.1888    0.0000 N   0  0  0  0  0  0  0  0  0  0  0  0
    2.3290   -7.8456    0.0000 C   0  0  0  0  0  0  0  0  0  0  0  0
    3.0347   -7.4403    0.0000 C   0  0  0  0  0  0  0  0  0  0  0  0
    3.0385   -6.5752    0.0000 C   0  0  0  0  0  0  0  0  0  0  0  0
    3.7250   -7.8607    0.0000 F   0  0  0  0  0  0  0  0  0  0  0  0
    5.8662   -4.9863    0.0000 N   0  0  0  0  0  0  0  0  0  0  0  0
    6.4766   -5.6575    0.0000 C   0  0  0  0  0  0  0  0  0  0  0  0
    6.0482   -6.3453    0.0000 C   0  0  0  0  0  0  0  0  0  0  0  0
    5.2209   -6.1888    0.0000 S   0  0  0  0  0  0  0  0  0  0  0  0
    3.0310   -4.0874    0.0000 C   0  0  0  0  0  0  0  0  0  0  0  0
    3.0400   -4.9221    0.0000 C   0  0  0  0  0  0  0  0  0  0  0  0
    2.2673   -3.7208    0.0000 C   0  0  0  0  0  0  0  0  0  0  0  0
    1.6132   -4.1063    0.0000 O   0  0  0  0  0  0  0  0  0  0  0  0
    2.3171   -2.8451    0.0000 O   0  0  0  0  0  0  0  0  0  0  0  0
    3.7253   -3.6719    0.0000 C   0  0  1  0  0  0  0  0  0  0  0  0
    4.3996   -4.1063    0.0000 N   0  0  0  0  0  0  0  0  0  0  0  0
    3.6957   -5.6316    0.0000 N   0  0  0  0  0  0  0  0  0  0  0  0
    2.3357   -5.3481    0.0000 C   0  0  0  0  0  0  0  0  0  0  0  0
    4.4436   -4.9273    0.0000 C   0  0  0  0  0  0  0  0  0  0  0  0
    5.2650   -5.4692    0.0000 C   0  0  0  0  0  0  0  0  0  0  0  0
    0.9086   -3.7027    0.0000 C   0  0  0  0  0  0  0  0  0  0  0  0
    0.2016   -4.0765    0.0000 C   0  0  0  0  0  0  0  0  0  0  0  0
    3.0284   -1.5873    0.0000 C   0  0  0  0  0  0  0  0  0  0  0  0
    3.0289   -2.4253    0.0000 C   0  0  0  0  0  0  0  0  0  0  0  0
    3.7428   -1.1641    0.0000 C   0  0  0  0  0  0  0  0  0  0  0  0
    3.7250   -0.3520    0.0000 F   0  0  0  0  0  0  0  0  0  0  0  0
    4.4388   -1.5977    0.0000 C   0  0  0  0  0  0  0  0  0  0  0  0
    4.4456   -2.4317    0.0000 C   0  0  0  0  0  0  0  0  0  0  0  0
    5.2844   -2.8525    0.0000 Cl  0  0  0  0  0  0  0  0  0  0  0  0
    3.7329   -2.8472    0.0000 C   0  0  0  0  0  0  0  0  0  0  0  0
  1  2  1  0  0  0  0
  1  3  1  0  0  0  0
  3  4  2  0  0  0  0
  3  5  1  0  0  0  0
  6  7  1  0  0  0  0
  6  8  1  0  0  0  0
  6 10  1  0  0  0  0
  8  9  1  0  0  0  0
  9 26  1  0  0  0  0
 10 11  1  0  0  0  0
 10  2  1  0  0  0  0
 12  9  1  0  0  0  0
 12 11  1  0  0  0  0
 13 11  1  0  0  0  0
 14 15  1  0  0  0  0
 16 15  2  0  0  0  0
 17 16  1  0  0  0  0
 17 28  1  0  0  0  0
 18 19  2  0  0  0  0
 18 20  1  0  0  0  0
 19 25  1  0  0  0  0
 19 26  1  0  0  0  0
 20 22  2  0  0  0  0
 21 20  1  0  0  0  0
 23 24  1  0  0  0  0
 23 18  1  0  0  0  0
 23 38  1  6  0  0  0
 24 27  2  0  0  0  0
 27 28  1  0  0  0  0
 27 25  1  0  0  0  0
 28 14  2  0  0  0  0
 29 21  1  0  0  0  0
 30 29  1  0  0  0  0
 31 32  2  0  0  0  0
 31 33  1  0  0  0  0
 32 38  1  0  0  0  0
 33 35  2  0  0  0  0
 34 33  1  0  0  0  0
 36 37  1  0  0  0  0
 36 35  1  0  0  0  0
 38 36  2  0  0  0  0
M  END
> <ID>
SCHEMBL21146627

> <InChIKey>
GGBUZZXSWSKPAE-CPJFGUOBSA-N

> <MW>
572.98

> <Series_Name>
Series_9

$$$$
SCHEMBL21146638
  Mrv1719007181910562D 0   0.00000     0.00000     0

 37 40  0  0  1  0              1 V2000 
    4.5516   -7.4073    0.0000 C   0  0  0  0  0  0  0  0  0  0  0  0
    3.7420   -7.4077    0.0000 C   0  0  0  0  0  0  0  0  0  0  0  0
    1.2940   -6.6821    0.0000 C   0  0  0  0  0  0  0  0  0  0  0  0
    2.0891   -6.9021    0.0000 C   0  0  0  0  0  0  0  0  0  0  0  0
    0.4955   -7.1776    0.0000 O   0  0  0  0  0  0  0  0  0  0  0  0
    1.1609   -5.8044    0.0000 O   0  0  0  0  0  0  0  0  0  0  0  0
    2.6891   -6.3494    0.0000 C   0  0  0  0  0  0  0  0  0  0  0  0
    3.4845   -6.5781    0.0000 C   0  0  0  0  0  0  0  0  0  0  0  0
    4.0772   -6.1159    0.0000 N   0  0  0  0  0  0  0  0  0  0  0  0
    4.7690   -6.5907    0.0000 C   0  0  0  0  0  0  0  0  0  0  0  0
    5.3230   -7.3900    0.0000 F   0  0  0  0  0  0  0  0  0  0  0  0
    4.9833   -8.0412    0.0000 F   0  0  0  0  0  0  0  0  0  0  0  0
    7.6448   -4.9550    0.0000 N   0  0  0  0  0  0  0  0  0  0  0  0
    8.2371   -5.5410    0.0000 C   0  0  0  0  0  0  0  0  0  0  0  0
    7.8522   -6.2681    0.0000 C   0  0  0  0  0  0  0  0  0  0  0  0
    6.9935   -6.1159    0.0000 S   0  0  0  0  0  0  0  0  0  0  0  0
    4.8224   -4.8951    0.0000 C   0  0  0  0  0  0  0  0  0  0  0  0
    4.1150   -5.2731    0.0000 C   0  0  0  0  0  0  0  0  0  0  0  0
    4.0348   -3.6763    0.0000 C   0  0  0  0  0  0  0  0  0  0  0  0
    4.8216   -4.0323    0.0000 C   0  0  0  0  0  0  0  0  0  0  0  0
    4.1055   -2.8031    0.0000 O   0  0  0  0  0  0  0  0  0  0  0  0
    5.5270   -3.5665    0.0000 C   0  0  1  0  0  0  0  0  0  0  0  0
    6.2008   -4.0206    0.0000 N   0  0  0  0  0  0  0  0  0  0  0  0
    5.5071   -5.5354    0.0000 N   0  0  0  0  0  0  0  0  0  0  0  0
    6.2537   -4.8945    0.0000 C   0  0  0  0  0  0  0  0  0  0  0  0
    7.0575   -5.3912    0.0000 C   0  0  0  0  0  0  0  0  0  0  0  0
    2.7193   -3.6371    0.0000 C   0  0  0  0  0  0  0  0  0  0  0  0
    3.3977   -4.0489    0.0000 O   0  0  0  0  0  0  0  0  0  0  0  0
    2.0460   -4.0191    0.0000 C   0  0  0  0  0  0  0  0  0  0  0  0
    4.8311   -1.5551    0.0000 C   0  0  0  0  0  0  0  0  0  0  0  0
    4.8447   -2.3950    0.0000 C   0  0  0  0  0  0  0  0  0  0  0  0
    5.5226   -1.1374    0.0000 C   0  0  0  0  0  0  0  0  0  0  0  0
    5.5212   -0.3115    0.0000 F   0  0  0  0  0  0  0  0  0  0  0  0
    6.2309   -2.3818    0.0000 C   0  0  0  0  0  0  0  0  0  0  0  0
    7.0550   -2.8421    0.0000 Br  0  0  0  0  0  0  0  0  0  0  0  0
    6.2380   -1.5692    0.0000 C   0  0  0  0  0  0  0  0  0  0  0  0
    5.5390   -2.8130    0.0000 C   0  0  0  0  0  0  0  0  0  0  0  0
  1  2  1  0  0  0  0
  1 10  1  0  0  0  0
  1 11  1  0  0  0  0
  3  4  1  0  0  0  0
  3  5  1  0  0  0  0
  4  7  2  0  0  0  0
  6  3  2  0  0  0  0
  7  8  1  0  0  0  0
  8  9  1  0  0  0  0
  8  2  1  0  0  0  0
  9 18  1  0  0  0  0
 10  9  1  0  0  0  0
 12  1  1  0  0  0  0
 13 14  1  0  0  0  0
 15 14  2  0  0  0  0
 16 15  1  0  0  0  0
 16 26  1  0  0  0  0
 17 18  1  0  0  0  0
 17 24  1  0  0  0  0
 19 20  1  0  0  0  0
 19 21  2  0  0  0  0
 20 17  2  0  0  0  0
 22 20  1  0  0  0  0
 22 23  1  0  0  0  0
 22 37  1  6  0  0  0
 23 25  2  0  0  0  0
 25 24  1  0  0  0  0
 25 26  1  0  0  0  0
 26 13  2  0  0  0  0
 27 28  1  0  0  0  0
 28 19  1  0  0  0  0
 29 27  1  0  0  0  0
 30 31  2  0  0  0  0
 30 32  1  0  0  0  0
 31 37  1  0  0  0  0
 32 36  2  0  0  0  0
 33 32  1  0  0  0  0
 34 35  1  0  0  0  0
 34 36  1  0  0  0  0
 37 34  2  0  0  0  0
M  END
> <ID>
SCHEMBL21146638

> <InChIKey>
UQPYNVXRASVOSX-BUMHMNGNSA-N

> <MW>
599.42

> <Series_Name>
Series_4

$$$$
SCHEMBL21146639
  Mrv1719007181910562D 0   0.00000     0.00000     0

 37 40  0  0  1  0              1 V2000 
    2.1509   -6.9405    0.0000 C   0  0  0  0  0  0  0  0  0  0  0  0
    2.7635   -6.4106    0.0000 C   0  0  0  0  0  0  0  0  0  0  0  0
    1.3449   -6.7096    0.0000 C   0  0  0  0  0  0  0  0  0  0  0  0
    0.5184   -7.1992    0.0000 O   0  0  0  0  0  0  0  0  0  0  0  0
    1.2094   -5.8458    0.0000 O   0  0  0  0  0  0  0  0  0  0  0  0
    3.5860   -6.6312    0.0000 C   0  0  0  0  0  0  0  0  0  0  0  0
    4.1756   -6.1337    0.0000 N   0  0  0  0  0  0  0  0  0  0  0  0
    3.8210   -7.3990    0.0000 C   0  0  0  0  0  0  0  0  0  0  0  0
    4.6366   -7.4139    0.0000 C   0  0  0  0  0  0  0  0  0  0  0  0
    4.8860   -6.6318    0.0000 C   0  0  0  0  0  0  0  0  0  0  0  0
    5.4138   -7.4295    0.0000 F   0  0  0  0  0  0  0  0  0  0  0  0
    5.0970   -8.0632    0.0000 F   0  0  0  0  0  0  0  0  0  0  0  0
    7.9553   -6.3433    0.0000 C   0  0  0  0  0  0  0  0  0  0  0  0
    8.3976   -5.5795    0.0000 C   0  0  0  0  0  0  0  0  0  0  0  0
    7.8040   -4.9818    0.0000 N   0  0  0  0  0  0  0  0  0  0  0  0
    7.1416   -6.1625    0.0000 S   0  0  0  0  0  0  0  0  0  0  0  0
    4.9345   -4.9192    0.0000 C   0  0  0  0  0  0  0  0  0  0  0  0
    4.2140   -5.3055    0.0000 C   0  0  0  0  0  0  0  0  0  0  0  0
    4.3019   -3.7078    0.0000 C   0  0  0  0  0  0  0  0  0  0  0  0
    4.9315   -4.0725    0.0000 C   0  0  0  0  0  0  0  0  0  0  0  0
    3.4844   -4.0603    0.0000 O   0  0  0  0  0  0  0  0  0  0  0  0
    4.2043   -2.8220    0.0000 O   0  0  0  0  0  0  0  0  0  0  0  0
    5.6650   -3.5705    0.0000 C   0  0  1  0  0  0  0  0  0  0  0  0
    6.3353   -4.0603    0.0000 N   0  0  0  0  0  0  0  0  0  0  0  0
    5.6153   -5.5866    0.0000 N   0  0  0  0  0  0  0  0  0  0  0  0
    6.3896   -4.9272    0.0000 C   0  0  0  0  0  0  0  0  0  0  0  0
    7.1847   -5.4409    0.0000 C   0  0  0  0  0  0  0  0  0  0  0  0
    2.8119   -3.7018    0.0000 C   0  0  0  0  0  0  0  0  0  0  0  0
    2.0985   -4.0594    0.0000 C   0  0  0  0  0  0  0  0  0  0  0  0
    4.9395   -2.4493    0.0000 C   0  0  0  0  0  0  0  0  0  0  0  0
    4.9468   -1.5606    0.0000 C   0  0  0  0  0  0  0  0  0  0  0  0
    5.6442   -0.3456    0.0000 F   0  0  0  0  0  0  0  0  0  0  0  0
    5.6581   -1.1828    0.0000 C   0  0  0  0  0  0  0  0  0  0  0  0
    6.3838   -1.5619    0.0000 C   0  0  0  0  0  0  0  0  0  0  0  0
    6.3818   -2.4383    0.0000 C   0  0  0  0  0  0  0  0  0  0  0  0
    7.2040   -2.8293    0.0000 Cl  0  0  0  0  0  0  0  0  0  0  0  0
    5.6532   -2.8472    0.0000 C   0  0  0  0  0  0  0  0  0  0  0  0
  1  2  2  0  0  0  0
  2  6  1  0  0  0  0
  3  1  1  0  0  0  0
  3  4  1  0  0  0  0
  5  3  2  0  0  0  0
  6  8  1  0  0  0  0
  7  6  1  0  0  0  0
  7 10  1  0  0  0  0
  7 18  1  0  0  0  0
  8  9  1  0  0  0  0
  9 11  1  0  0  0  0
 10  9  1  0  0  0  0
 12  9  1  0  0  0  0
 13 14  2  0  0  0  0
 15 14  1  0  0  0  0
 16 13  1  0  0  0  0
 16 27  1  0  0  0  0
 17 18  1  0  0  0  0
 17 25  1  0  0  0  0
 19 20  1  0  0  0  0
 19 21  1  0  0  0  0
 20 17  2  0  0  0  0
 21 28  1  0  0  0  0
 22 19  2  0  0  0  0
 23 20  1  0  0  0  0
 23 24  1  0  0  0  0
 23 37  1  6  0  0  0
 24 26  2  0  0  0  0
 26 27  1  0  0  0  0
 26 25  1  0  0  0  0
 27 15  2  0  0  0  0
 29 28  1  0  0  0  0
 30 31  2  0  0  0  0
 30 37  1  0  0  0  0
 31 33  1  0  0  0  0
 32 33  1  0  0  0  0
 33 34  2  0  0  0  0
 35 34  1  0  0  0  0
 35 36  1  0  0  0  0
 37 35  2  0  0  0  0
M  END
> <ID>
SCHEMBL21146639

> <InChIKey>
ZDOLVJQCEJTZBB-BUMHMNGNSA-N

> <MW>
554.97

> <Series_Name>
Series_4

$$$$
SCHEMBL21146641
  Mrv1719007181910572D 0   0.00000     0.00000     0

 34 37  0  0  1  0              1 V2000 
    0.5969   -7.8376    0.0000 O   0  0  0  0  0  0  0  0  0  0  0  0
    1.5437   -7.4341    0.0000 C   0  0  0  0  0  0  0  0  0  0  0  0
    1.5474   -6.6021    0.0000 C   0  0  0  0  0  0  0  0  0  0  0  0
    2.2060   -6.1507    0.0000 N   0  0  0  0  0  0  0  0  0  0  0  0
    2.2298   -7.8589    0.0000 C   0  0  0  0  0  0  0  0  0  0  0  0
    2.9409   -7.4390    0.0000 C   0  0  0  0  0  0  0  0  0  0  0  0
    2.9372   -6.6244    0.0000 C   0  0  0  0  0  0  0  0  0  0  0  0
    3.6074   -6.9812    0.0000 F   0  0  0  0  0  0  0  0  0  0  0  0
    3.6074   -7.8376    0.0000 F   0  0  0  0  0  0  0  0  0  0  0  0
    6.3548   -5.5945    0.0000 C   0  0  0  0  0  0  0  0  0  0  0  0
    5.7614   -5.0088    0.0000 S   0  0  0  0  0  0  0  0  0  0  0  0
    5.9490   -6.3421    0.0000 C   0  0  0  0  0  0  0  0  0  0  0  0
    5.0867   -6.1507    0.0000 N   0  0  0  0  0  0  0  0  0  0  0  0
    2.2391   -5.3545    0.0000 C   0  0  0  0  0  0  0  0  0  0  0  0
    2.9453   -4.9494    0.0000 C   0  0  0  0  0  0  0  0  0  0  0  0
    2.9471   -4.1193    0.0000 C   0  0  0  0  0  0  0  0  0  0  0  0
    2.1661   -3.7083    0.0000 C   0  0  0  0  0  0  0  0  0  0  0  0
    1.5052   -4.0745    0.0000 O   0  0  0  0  0  0  0  0  0  0  0  0
    2.2060   -2.8547    0.0000 O   0  0  0  0  0  0  0  0  0  0  0  0
    3.6042   -3.6204    0.0000 C   0  0  1  0  0  0  0  0  0  0  0  0
    4.3081   -4.0745    0.0000 N   0  0  0  0  0  0  0  0  0  0  0  0
    3.6074   -5.6057    0.0000 N   0  0  0  0  0  0  0  0  0  0  0  0
    4.3387   -4.9528    0.0000 C   0  0  0  0  0  0  0  0  0  0  0  0
    5.0384   -5.3694    0.0000 C   0  0  0  0  0  0  0  0  0  0  0  0
    0.8016   -3.6998    0.0000 C   0  0  0  0  0  0  0  0  0  0  0  0
    0.1550   -4.1005    0.0000 C   0  0  0  0  0  0  0  0  0  0  0  0
    2.9386   -1.5915    0.0000 C   0  0  0  0  0  0  0  0  0  0  0  0
    2.9489   -2.4456    0.0000 C   0  0  0  0  0  0  0  0  0  0  0  0
    3.6364   -1.2151    0.0000 C   0  0  0  0  0  0  0  0  0  0  0  0
    3.6074   -0.3374    0.0000 F   0  0  0  0  0  0  0  0  0  0  0  0
    4.3530   -2.4411    0.0000 C   0  0  0  0  0  0  0  0  0  0  0  0
    4.3389   -1.6087    0.0000 C   0  0  0  0  0  0  0  0  0  0  0  0
    5.1432   -2.8645    0.0000 Br  0  0  0  0  0  0  0  0  0  0  0  0
    3.6259   -2.9001    0.0000 C   0  0  0  0  0  0  0  0  0  0  0  0
  1  2  1  0  0  0  0
  3  4  1  0  0  0  0
  3  2  1  0  0  0  0
  4 14  1  0  0  0  0
  5  6  1  0  0  0  0
  5  2  1  0  0  0  0
  6  7  1  0  0  0  0
  7  4  1  0  0  0  0
  8  6  1  0  0  0  0
  9  6  1  0  0  0  0
 10 11  1  0  0  0  0
 11 24  1  0  0  0  0
 12 10  2  0  0  0  0
 13 12  1  0  0  0  0
 14 15  1  0  0  0  0
 15 16  2  0  0  0  0
 16 17  1  0  0  0  0
 20 16  1  0  0  0  0
 17 19  2  0  0  0  0
 18 17  1  0  0  0  0
 20 21  1  0  0  0  0
 20 34  1  6  0  0  0
 21 23  2  0  0  0  0
 22 15  1  0  0  0  0
 23 24  1  0  0  0  0
 23 22  1  0  0  0  0
 24 13  2  0  0  0  0
 25 18  1  0  0  0  0
 26 25  1  0  0  0  0
 27 28  2  0  0  0  0
 27 29  1  0  0  0  0
 28 34  1  0  0  0  0
 29 32  2  0  0  0  0
 30 29  1  0  0  0  0
 31 32  1  0  0  0  0
 31 33  1  0  0  0  0
 34 31  2  0  0  0  0
M  END
> <ID>
SCHEMBL21146641

> <InChIKey>
FIBLDIKAQJEXCI-UWBLVGDVSA-N

> <MW>
559.4

> <Series_Name>
Series_9

$$$$
SCHEMBL21146742
  Mrv1719007181911542D 0   0.00000     0.00000     0

 34 37  0  0  1  0              1 V2000 
    2.3296   -7.7355    0.0000 C   0  0  0  0  0  0  0  0  0  0  0  0
    1.5776   -7.3428    0.0000 C   0  0  0  0  0  0  0  0  0  0  0  0
    1.5888   -6.5029    0.0000 C   0  0  0  0  0  0  0  0  0  0  0  0
    2.2446   -6.0605    0.0000 N   0  0  0  0  0  0  0  0  0  0  0  0
    3.0529   -7.3330    0.0000 C   0  0  0  0  0  0  0  0  0  0  0  0
    3.0383   -6.5081    0.0000 C   0  0  0  0  0  0  0  0  0  0  0  0
    3.7317   -6.9022    0.0000 F   0  0  0  0  0  0  0  0  0  0  0  0
    3.7317   -7.7159    0.0000 F   0  0  0  0  0  0  0  0  0  0  0  0
    2.4971   -8.5576    0.0000 O   0  0  0  0  0  0  0  0  0  0  0  0
    5.8641   -4.9101    0.0000 N   0  0  0  0  0  0  0  0  0  0  0  0
    6.4761   -5.5499    0.0000 C   0  0  0  0  0  0  0  0  0  0  0  0
    6.0383   -6.2380    0.0000 C   0  0  0  0  0  0  0  0  0  0  0  0
    5.2188   -6.0605    0.0000 S   0  0  0  0  0  0  0  0  0  0  0  0
    2.3187   -5.2461    0.0000 C   0  0  0  0  0  0  0  0  0  0  0  0
    3.0403   -4.8451    0.0000 C   0  0  0  0  0  0  0  0  0  0  0  0
    3.0424   -4.0227    0.0000 C   0  0  0  0  0  0  0  0  0  0  0  0
    2.3503   -3.6688    0.0000 C   0  0  0  0  0  0  0  0  0  0  0  0
    1.5713   -4.0403    0.0000 O   0  0  0  0  0  0  0  0  0  0  0  0
    2.3007   -2.7777    0.0000 O   0  0  0  0  0  0  0  0  0  0  0  0
    3.0394   -1.5512    0.0000 C   0  0  0  0  0  0  0  0  0  0  0  0
    3.0473   -2.3740    0.0000 C   0  0  0  0  0  0  0  0  0  0  0  0
    3.7423   -1.1688    0.0000 C   0  0  0  0  0  0  0  0  0  0  0  0
    3.7317   -0.3367    0.0000 F   0  0  0  0  0  0  0  0  0  0  0  0
    4.4495   -1.5509    0.0000 C   0  0  0  0  0  0  0  0  0  0  0  0
    4.4500   -2.3828    0.0000 C   0  0  0  0  0  0  0  0  0  0  0  0
    5.2656   -2.7918    0.0000 Cl  0  0  0  0  0  0  0  0  0  0  0  0
    3.7318   -2.8462    0.0000 C   0  0  0  0  0  0  0  0  0  0  0  0
    3.7561   -3.6396    0.0000 C   0  0  1  0  0  0  0  0  0  0  0  0
    4.4051   -4.0123    0.0000 N   0  0  0  0  0  0  0  0  0  0  0  0
    3.7037   -5.5134    0.0000 N   0  0  0  0  0  0  0  0  0  0  0  0
    4.4472   -4.8482    0.0000 C   0  0  0  0  0  0  0  0  0  0  0  0
    5.1753   -5.2690    0.0000 C   0  0  0  0  0  0  0  0  0  0  0  0
    0.8975   -3.6537    0.0000 C   0  0  0  0  0  0  0  0  0  0  0  0
    0.1928   -4.0113    0.0000 C   0  0  0  0  0  0  0  0  0  0  0  0
  1  2  1  0  0  0  0
  1  9  1  0  0  0  0
  2  3  1  0  0  0  0
  3  4  1  0  0  0  0
  4  6  1  0  0  0  0
  4 14  1  0  0  0  0
  5  6  1  0  0  0  0
  5  7  1  0  0  0  0
  5  1  1  0  0  0  0
  8  5  1  0  0  0  0
 10 11  1  0  0  0  0
 12 11  2  0  0  0  0
 13 12  1  0  0  0  0
 13 32  1  0  0  0  0
 14 15  1  0  0  0  0
 15 16  2  0  0  0  0
 28 16  1  0  0  0  0
 17 16  1  0  0  0  0
 17 18  1  0  0  0  0
 19 17  2  0  0  0  0
 20 21  2  0  0  0  0
 20 22  1  0  0  0  0
 21 27  1  0  0  0  0
 22 24  2  0  0  0  0
 23 22  1  0  0  0  0
 25 26  1  0  0  0  0
 25 24  1  0  0  0  0
 27 25  2  0  0  0  0
 28 27  1  1  0  0  0
 28 29  1  0  0  0  0
 29 31  2  0  0  0  0
 30 15  1  0  0  0  0
 31 30  1  0  0  0  0
 31 32  1  0  0  0  0
 32 10  2  0  0  0  0
 33 18  1  0  0  0  0
 34 33  1  0  0  0  0
M  END
> <ID>
SCHEMBL21146742

> <InChIKey>
FCEQQKHPCBZJEA-UHUGOGIASA-N

> <MW>
514.95

> <Series_Name>
Series_9

$$$$
SCHEMBL21146747
  Mrv1719007181911552D 0   0.00000     0.00000     0

 34 37  0  0  1  0              1 V2000 
    1.5444   -7.3799    0.0000 C   0  0  0  0  0  0  0  0  0  0  0  0
    0.6060   -7.7678    0.0000 O   0  0  0  0  0  0  0  0  0  0  0  0
    1.5521   -6.5356    0.0000 C   0  0  0  0  0  0  0  0  0  0  0  0
    2.2036   -6.1151    0.0000 N   0  0  0  0  0  0  0  0  0  0  0  0
    2.9591   -7.3767    0.0000 C   0  0  0  0  0  0  0  0  0  0  0  0
    2.9559   -6.5586    0.0000 C   0  0  0  0  0  0  0  0  0  0  0  0
    3.6360   -6.9414    0.0000 F   0  0  0  0  0  0  0  0  0  0  0  0
    3.6360   -7.7402    0.0000 F   0  0  0  0  0  0  0  0  0  0  0  0
    2.2433   -7.7924    0.0000 C   0  0  0  0  0  0  0  0  0  0  0  0
    5.0959   -6.1151    0.0000 N   0  0  0  0  0  0  0  0  0  0  0  0
    5.9365   -6.2806    0.0000 C   0  0  0  0  0  0  0  0  0  0  0  0
    6.3578   -5.5774    0.0000 C   0  0  0  0  0  0  0  0  0  0  0  0
    5.7569   -4.9581    0.0000 S   0  0  0  0  0  0  0  0  0  0  0  0
    2.2405   -5.2966    0.0000 C   0  0  0  0  0  0  0  0  0  0  0  0
    2.9515   -4.8973    0.0000 C   0  0  0  0  0  0  0  0  0  0  0  0
    2.9580   -4.0637    0.0000 C   0  0  0  0  0  0  0  0  0  0  0  0
    2.2996   -3.6500    0.0000 C   0  0  0  0  0  0  0  0  0  0  0  0
    1.5425   -4.0492    0.0000 O   0  0  0  0  0  0  0  0  0  0  0  0
    2.2312   -2.8096    0.0000 O   0  0  0  0  0  0  0  0  0  0  0  0
    3.6397   -3.5975    0.0000 C   0  0  1  0  0  0  0  0  0  0  0  0
    4.2971   -4.0492    0.0000 N   0  0  0  0  0  0  0  0  0  0  0  0
    3.6084   -5.5504    0.0000 N   0  0  0  0  0  0  0  0  0  0  0  0
    4.3611   -4.8955    0.0000 C   0  0  0  0  0  0  0  0  0  0  0  0
    5.0787   -5.3025    0.0000 C   0  0  0  0  0  0  0  0  0  0  0  0
    0.8477   -3.6387    0.0000 C   0  0  0  0  0  0  0  0  0  0  0  0
    0.1618   -4.0490    0.0000 C   0  0  0  0  0  0  0  0  0  0  0  0
    2.9536   -1.5788    0.0000 C   0  0  0  0  0  0  0  0  0  0  0  0
    2.9646   -2.4328    0.0000 C   0  0  0  0  0  0  0  0  0  0  0  0
    3.6452   -1.1757    0.0000 C   0  0  0  0  0  0  0  0  0  0  0  0
    3.6360   -0.3305    0.0000 F   0  0  0  0  0  0  0  0  0  0  0  0
    4.3628   -1.5912    0.0000 C   0  0  0  0  0  0  0  0  0  0  0  0
    4.3561   -2.4259    0.0000 C   0  0  0  0  0  0  0  0  0  0  0  0
    5.1693   -2.8165    0.0000 Cl  0  0  0  0  0  0  0  0  0  0  0  0
    3.6423   -2.8416    0.0000 C   0  0  0  0  0  0  0  0  0  0  0  0
  1  2  1  0  0  0  0
  1  3  1  0  0  0  0
  3  4  1  0  0  0  0
  4  6  1  0  0  0  0
  4 14  1  0  0  0  0
  5  6  1  0  0  0  0
  5  9  1  0  0  0  0
  7  5  1  0  0  0  0
  8  5  1  0  0  0  0
  9  1  1  0  0  0  0
 10 11  1  0  0  0  0
 11 12  2  0  0  0  0
 12 13  1  0  0  0  0
 13 24  1  0  0  0  0
 14 15  1  0  0  0  0
 15 16  2  0  0  0  0
 16 17  1  0  0  0  0
 20 16  1  0  0  0  0
 17 18  1  0  0  0  0
 19 17  2  0  0  0  0
 20 21  1  0  0  0  0
 20 34  1  6  0  0  0
 21 23  2  0  0  0  0
 22 15  1  0  0  0  0
 23 24  1  0  0  0  0
 23 22  1  0  0  0  0
 24 10  2  0  0  0  0
 25 18  1  0  0  0  0
 25 26  1  0  0  0  0
 27 28  2  0  0  0  0
 27 29  1  0  0  0  0
 28 34  1  0  0  0  0
 29 31  2  0  0  0  0
 30 29  1  0  0  0  0
 32 31  1  0  0  0  0
 32 33  1  0  0  0  0
 34 32  2  0  0  0  0
M  END
> <ID>
SCHEMBL21146747

> <InChIKey>
SEXFHEPHPVXSCO-UWBLVGDVSA-N

> <MW>
514.95

> <Series_Name>
Series_9

$$$$
SCHEMBL21146748
  Mrv1719007181911552D 0   0.00000     0.00000     0

 40 43  0  0  1  0              1 V2000 
    2.3057   -8.6682    0.0000 O   0  0  0  0  0  0  0  0  0  0  0  0
    3.0280   -9.1082    0.0000 C   0  0  0  0  0  0  0  0  0  0  0  0
    3.3464   -9.5473    0.0000 C   0  0  0  0  0  0  0  0  0  0  0  0
    3.1254  -10.0426    0.0000 O   0  0  0  0  0  0  0  0  0  0  0  0
    3.8859   -9.4910    0.0000 O   0  0  0  0  0  0  0  0  0  0  0  0
    2.2990   -7.8167    0.0000 C   0  0  0  0  0  0  0  0  0  0  0  0
    1.5683   -7.4336    0.0000 C   0  0  0  0  0  0  0  0  0  0  0  0
    0.8464   -7.8510    0.0000 F   0  0  0  0  0  0  0  0  0  0  0  0
    0.8464   -7.0046    0.0000 F   0  0  0  0  0  0  0  0  0  0  0  0
    1.5952   -6.6001    0.0000 C   0  0  0  0  0  0  0  0  0  0  0  0
    2.2473   -6.1874    0.0000 N   0  0  0  0  0  0  0  0  0  0  0  0
    3.0208   -7.4275    0.0000 C   0  0  0  0  0  0  0  0  0  0  0  0
    3.0151   -6.6281    0.0000 C   0  0  0  0  0  0  0  0  0  0  0  0
    3.7066   -7.0046    0.0000 F   0  0  0  0  0  0  0  0  0  0  0  0
    3.7066   -7.8510    0.0000 F   0  0  0  0  0  0  0  0  0  0  0  0
    5.8664   -4.9907    0.0000 N   0  0  0  0  0  0  0  0  0  0  0  0
    6.4738   -5.6304    0.0000 C   0  0  0  0  0  0  0  0  0  0  0  0
    6.0193   -6.3713    0.0000 C   0  0  0  0  0  0  0  0  0  0  0  0
    5.1951   -6.1874    0.0000 S   0  0  0  0  0  0  0  0  0  0  0  0
    2.2862   -5.3188    0.0000 C   0  0  0  0  0  0  0  0  0  0  0  0
    3.0166   -4.9272    0.0000 C   0  0  0  0  0  0  0  0  0  0  0  0
    3.0168   -4.0723    0.0000 C   0  0  0  0  0  0  0  0  0  0  0  0
    2.3410   -3.7002    0.0000 C   0  0  0  0  0  0  0  0  0  0  0  0
    1.5760   -4.0860    0.0000 O   0  0  0  0  0  0  0  0  0  0  0  0
    2.3057   -2.8310    0.0000 O   0  0  0  0  0  0  0  0  0  0  0  0
    3.7044   -3.6185    0.0000 C   0  0  1  0  0  0  0  0  0  0  0  0
    4.4070   -4.0860    0.0000 N   0  0  0  0  0  0  0  0  0  0  0  0
    3.6774   -5.6037    0.0000 N   0  0  0  0  0  0  0  0  0  0  0  0
    4.4456   -4.9258    0.0000 C   0  0  0  0  0  0  0  0  0  0  0  0
    5.2387   -5.4561    0.0000 C   0  0  0  0  0  0  0  0  0  0  0  0
    0.8790   -3.6835    0.0000 C   0  0  0  0  0  0  0  0  0  0  0  0
    0.1726   -4.0568    0.0000 C   0  0  0  0  0  0  0  0  0  0  0  0
    3.0145   -1.5844    0.0000 C   0  0  0  0  0  0  0  0  0  0  0  0
    3.0244   -2.4326    0.0000 C   0  0  0  0  0  0  0  0  0  0  0  0
    3.7162   -1.1873    0.0000 C   0  0  0  0  0  0  0  0  0  0  0  0
    3.7066   -0.3502    0.0000 F   0  0  0  0  0  0  0  0  0  0  0  0
    4.4476   -1.5966    0.0000 C   0  0  0  0  0  0  0  0  0  0  0  0
    4.4448   -2.4173    0.0000 C   0  0  0  0  0  0  0  0  0  0  0  0
    5.2584   -2.8711    0.0000 Br  0  0  0  0  0  0  0  0  0  0  0  0
    3.7117   -2.8590    0.0000 C   0  0  0  0  0  0  0  0  0  0  0  0
  1  2  1  0  0  0  0
  2  3  1  0  0  0  0
  3  4  2  0  0  0  0
  3  5  1  0  0  0  0
  6  7  1  0  0  0  0
  6 12  1  0  0  0  0
  6  1  1  0  0  0  0
  7  8  1  0  0  0  0
  7  9  1  0  0  0  0
  7 10  1  0  0  0  0
 10 11  1  0  0  0  0
 11 13  1  0  0  0  0
 11 20  1  0  0  0  0
 12 13  1  0  0  0  0
 14 12  1  0  0  0  0
 15 12  1  0  0  0  0
 16 17  1  0  0  0  0
 18 17  2  0  0  0  0
 19 18  1  0  0  0  0
 19 30  1  0  0  0  0
 20 21  1  0  0  0  0
 21 22  2  0  0  0  0
 22 23  1  0  0  0  0
 26 22  1  0  0  0  0
 23 24  1  0  0  0  0
 25 23  2  0  0  0  0
 26 27  1  0  0  0  0
 26 40  1  6  0  0  0
 27 29  2  0  0  0  0
 28 21  1  0  0  0  0
 29 30  1  0  0  0  0
 29 28  1  0  0  0  0
 30 16  2  0  0  0  0
 31 24  1  0  0  0  0
 32 31  1  0  0  0  0
 33 34  2  0  0  0  0
 33 35  1  0  0  0  0
 34 40  1  0  0  0  0
 35 37  2  0  0  0  0
 36 35  1  0  0  0  0
 38 37  1  0  0  0  0
 38 39  1  0  0  0  0
 40 38  2  0  0  0  0
M  END
> <ID>
SCHEMBL21146748

> <InChIKey>
FJHGCQFNCXBQAM-SFHVURJKSA-N

> <MW>
653.42

> <Series_Name>
Series_9

$$$$
SCHEMBL21146750
  Mrv1719007181911552D 0   0.00000     0.00000     0

 33 36  0  0  1  0              1 V2000 
    1.5462   -7.3005    0.0000 C   0  0  0  0  0  0  0  0  0  0  0  0
    0.5931   -7.6834    0.0000 O   0  0  0  0  0  0  0  0  0  0  0  0
    1.5535   -6.4607    0.0000 C   0  0  0  0  0  0  0  0  0  0  0  0
    2.2376   -6.0389    0.0000 N   0  0  0  0  0  0  0  0  0  0  0  0
    2.2829   -7.7017    0.0000 C   0  0  0  0  0  0  0  0  0  0  0  0
    3.0043   -7.2970    0.0000 C   0  0  0  0  0  0  0  0  0  0  0  0
    3.0026   -6.4603    0.0000 C   0  0  0  0  0  0  0  0  0  0  0  0
    3.6665   -7.6834    0.0000 F   0  0  0  0  0  0  0  0  0  0  0  0
    5.9887   -6.2272    0.0000 C   0  0  0  0  0  0  0  0  0  0  0  0
    6.4059   -5.5572    0.0000 C   0  0  0  0  0  0  0  0  0  0  0  0
    5.8233   -4.9066    0.0000 S   0  0  0  0  0  0  0  0  0  0  0  0
    5.1492   -6.0389    0.0000 N   0  0  0  0  0  0  0  0  0  0  0  0
    2.3005   -5.2365    0.0000 C   0  0  0  0  0  0  0  0  0  0  0  0
    3.0031   -4.8443    0.0000 C   0  0  0  0  0  0  0  0  0  0  0  0
    3.0085   -4.0193    0.0000 C   0  0  0  0  0  0  0  0  0  0  0  0
    2.3216   -3.6344    0.0000 C   0  0  0  0  0  0  0  0  0  0  0  0
    1.5097   -3.9900    0.0000 O   0  0  0  0  0  0  0  0  0  0  0  0
    2.2376   -2.7768    0.0000 O   0  0  0  0  0  0  0  0  0  0  0  0
    3.7009   -3.5508    0.0000 C   0  0  1  0  0  0  0  0  0  0  0  0
    4.3674   -3.9900    0.0000 N   0  0  0  0  0  0  0  0  0  0  0  0
    3.6395   -5.4997    0.0000 N   0  0  0  0  0  0  0  0  0  0  0  0
    4.4155   -4.8484    0.0000 C   0  0  0  0  0  0  0  0  0  0  0  0
    5.1282   -5.2488    0.0000 C   0  0  0  0  0  0  0  0  0  0  0  0
    0.8825   -3.6271    0.0000 C   0  0  0  0  0  0  0  0  0  0  0  0
    0.1483   -4.0147    0.0000 C   0  0  0  0  0  0  0  0  0  0  0  0
    3.6665   -0.3235    0.0000 F   0  0  0  0  0  0  0  0  0  0  0  0
    3.7067   -1.1527    0.0000 C   0  0  0  0  0  0  0  0  0  0  0  0
    4.4106   -1.5440    0.0000 C   0  0  0  0  0  0  0  0  0  0  0  0
    4.4002   -2.3729    0.0000 C   0  0  0  0  0  0  0  0  0  0  0  0
    5.2346   -2.7566    0.0000 Cl  0  0  0  0  0  0  0  0  0  0  0  0
    3.6732   -2.7911    0.0000 C   0  0  0  0  0  0  0  0  0  0  0  0
    3.0105   -2.3764    0.0000 C   0  0  0  0  0  0  0  0  0  0  0  0
    3.0197   -1.5582    0.0000 C   0  0  0  0  0  0  0  0  0  0  0  0
  1  2  1  0  0  0  0
  1  3  1  0  0  0  0
  3  4  1  0  0  0  0
  4  7  1  0  0  0  0
  4 13  1  0  0  0  0
  5  6  1  0  0  0  0
  5  1  1  0  0  0  0
  7  6  1  0  0  0  0
  8  6  1  0  0  0  0
  9 10  2  0  0  0  0
 10 11  1  0  0  0  0
 11 23  1  0  0  0  0
 12  9  1  0  0  0  0
 13 14  1  0  0  0  0
 14 15  2  0  0  0  0
 15 16  1  0  0  0  0
 19 15  1  0  0  0  0
 16 17  1  0  0  0  0
 17 24  1  0  0  0  0
 18 16  2  0  0  0  0
 19 20  1  0  0  0  0
 19 31  1  6  0  0  0
 20 22  2  0  0  0  0
 21 14  1  0  0  0  0
 22 21  1  0  0  0  0
 22 23  1  0  0  0  0
 23 12  2  0  0  0  0
 25 24  1  0  0  0  0
 26 27  1  0  0  0  0
 27 28  2  0  0  0  0
 29 30  1  0  0  0  0
 29 28  1  0  0  0  0
 31 29  2  0  0  0  0
 31 32  1  0  0  0  0
 32 33  2  0  0  0  0
 33 27  1  0  0  0  0
M  END
> <ID>
SCHEMBL21146750

> <InChIKey>
NWHRTYAKHUFBMM-MHVYXZCWSA-N

> <MW>
496.96

> <Series_Name>
Series_9

$$$$
SCHEMBL21146751
  Mrv1719007181911552D 0   0.00000     0.00000     0

 33 36  0  0  1  0              1 V2000 
    1.5532   -7.3255    0.0000 C   0  0  0  0  0  0  0  0  0  0  0  0
    0.6016   -7.7226    0.0000 O   0  0  0  0  0  0  0  0  0  0  0  0
    1.5460   -6.4997    0.0000 C   0  0  0  0  0  0  0  0  0  0  0  0
    2.2105   -6.0717    0.0000 N   0  0  0  0  0  0  0  0  0  0  0  0
    2.2633   -7.7455    0.0000 C   0  0  0  0  0  0  0  0  0  0  0  0
    2.9837   -7.3246    0.0000 C   0  0  0  0  0  0  0  0  0  0  0  0
    2.9869   -6.5215    0.0000 C   0  0  0  0  0  0  0  0  0  0  0  0
    3.6934   -7.7226    0.0000 F   0  0  0  0  0  0  0  0  0  0  0  0
    6.4356   -5.5619    0.0000 C   0  0  0  0  0  0  0  0  0  0  0  0
    5.8199   -4.9525    0.0000 S   0  0  0  0  0  0  0  0  0  0  0  0
    6.0221   -6.2501    0.0000 C   0  0  0  0  0  0  0  0  0  0  0  0
    5.1484   -6.0717    0.0000 N   0  0  0  0  0  0  0  0  0  0  0  0
    2.2612   -5.2790    0.0000 C   0  0  0  0  0  0  0  0  0  0  0  0
    2.9697   -4.8904    0.0000 C   0  0  0  0  0  0  0  0  0  0  0  0
    2.9766   -4.0427    0.0000 C   0  0  0  0  0  0  0  0  0  0  0  0
    2.3175   -3.6553    0.0000 C   0  0  0  0  0  0  0  0  0  0  0  0
    1.5389   -4.0572    0.0000 O   0  0  0  0  0  0  0  0  0  0  0  0
    2.2384   -2.7980    0.0000 O   0  0  0  0  0  0  0  0  0  0  0  0
    3.6751   -3.5829    0.0000 C   0  0  1  0  0  0  0  0  0  0  0  0
    4.3649   -4.0291    0.0000 N   0  0  0  0  0  0  0  0  0  0  0  0
    3.6654   -5.5401    0.0000 N   0  0  0  0  0  0  0  0  0  0  0  0
    4.4174   -4.8928    0.0000 C   0  0  0  0  0  0  0  0  0  0  0  0
    5.1292   -5.2799    0.0000 C   0  0  0  0  0  0  0  0  0  0  0  0
    0.8528   -3.6232    0.0000 C   0  0  0  0  0  0  0  0  0  0  0  0
    0.1678   -4.0291    0.0000 C   0  0  0  0  0  0  0  0  0  0  0  0
    2.9739   -1.5461    0.0000 C   0  0  0  0  0  0  0  0  0  0  0  0
    2.9834   -2.4160    0.0000 C   0  0  0  0  0  0  0  0  0  0  0  0
    3.7213   -1.1767    0.0000 C   0  0  0  0  0  0  0  0  0  0  0  0
    3.6654   -0.3358    0.0000 F   0  0  0  0  0  0  0  0  0  0  0  0
    4.4119   -1.5462    0.0000 C   0  0  0  0  0  0  0  0  0  0  0  0
    4.4105   -2.3923    0.0000 C   0  0  0  0  0  0  0  0  0  0  0  0
    5.2371   -2.8085    0.0000 Br  0  0  0  0  0  0  0  0  0  0  0  0
    3.6785   -2.8078    0.0000 C   0  0  0  0  0  0  0  0  0  0  0  0
  1  2  1  0  0  0  0
  1  3  1  0  0  0  0
  3  4  1  0  0  0  0
  4  7  1  0  0  0  0
  4 13  1  0  0  0  0
  5  6  1  0  0  0  0
  5  1  1  0  0  0  0
  6  8  1  0  0  0  0
  7  6  1  0  0  0  0
  9 10  1  0  0  0  0
 10 23  1  0  0  0  0
 11  9  2  0  0  0  0
 12 11  1  0  0  0  0
 13 14  1  0  0  0  0
 14 15  2  0  0  0  0
 15 16  1  0  0  0  0
 19 15  1  0  0  0  0
 16 17  1  0  0  0  0
 18 16  2  0  0  0  0
 19 20  1  0  0  0  0
 19 33  1  6  0  0  0
 20 22  2  0  0  0  0
 21 14  1  0  0  0  0
 22 21  1  0  0  0  0
 22 23  1  0  0  0  0
 23 12  2  0  0  0  0
 24 17  1  0  0  0  0
 25 24  1  0  0  0  0
 26 27  2  0  0  0  0
 26 28  1  0  0  0  0
 27 33  1  0  0  0  0
 28 30  2  0  0  0  0
 29 28  1  0  0  0  0
 31 30  1  0  0  0  0
 31 32  1  0  0  0  0
 33 31  2  0  0  0  0
M  END
> <ID>
SCHEMBL21146751

> <InChIKey>
PVTWURXIKFZDAN-MHVYXZCWSA-N

> <MW>
541.41

> <Series_Name>
Series_9

$$$$
SCHEMBL21146760
  Mrv1719007181911582D 0   0.00000     0.00000     0

 38 41  0  0  1  0              1 V2000 
    2.2857   -8.8042    0.0000 O   0  0  0  0  0  0  0  0  0  0  0  0
    3.0104   -9.2352    0.0000 C   0  0  0  0  0  0  0  0  0  0  0  0
    3.3259   -9.6751    0.0000 C   0  0  0  0  0  0  0  0  0  0  0  0
    3.1027  -10.1683    0.0000 O   0  0  0  0  0  0  0  0  0  0  0  0
    3.8647   -9.6219    0.0000 O   0  0  0  0  0  0  0  0  0  0  0  0
    2.3044   -7.9635    0.0000 C   0  0  0  0  0  0  0  0  0  0  0  0
    1.5941   -7.5568    0.0000 C   0  0  0  0  0  0  0  0  0  0  0  0
    0.8466   -7.9576    0.0000 F   0  0  0  0  0  0  0  0  0  0  0  0
    1.5875   -6.6961    0.0000 C   0  0  0  0  0  0  0  0  0  0  0  0
    2.2575   -6.2362    0.0000 N   0  0  0  0  0  0  0  0  0  0  0  0
    3.0105   -6.6958    0.0000 C   0  0  0  0  0  0  0  0  0  0  0  0
    3.0056   -7.5568    0.0000 C   0  0  0  0  0  0  0  0  0  0  0  0
    3.6966   -7.9576    0.0000 F   0  0  0  0  0  0  0  0  0  0  0  0
    5.8694   -5.0511    0.0000 N   0  0  0  0  0  0  0  0  0  0  0  0
    6.4858   -5.7191    0.0000 C   0  0  0  0  0  0  0  0  0  0  0  0
    6.0731   -6.4162    0.0000 C   0  0  0  0  0  0  0  0  0  0  0  0
    5.2204   -6.2362    0.0000 S   0  0  0  0  0  0  0  0  0  0  0  0
    2.3045   -5.4244    0.0000 C   0  0  0  0  0  0  0  0  0  0  0  0
    2.9994   -4.9852    0.0000 C   0  0  0  0  0  0  0  0  0  0  0  0
    3.0035   -4.1275    0.0000 C   0  0  0  0  0  0  0  0  0  0  0  0
    2.3910   -3.7720    0.0000 C   0  0  0  0  0  0  0  0  0  0  0  0
    1.5520   -4.1199    0.0000 O   0  0  0  0  0  0  0  0  0  0  0  0
    2.2857   -2.8783    0.0000 O   0  0  0  0  0  0  0  0  0  0  0  0
    3.7163   -3.7062    0.0000 C   0  0  1  0  0  0  0  0  0  0  0  0
    4.4021   -4.1199    0.0000 N   0  0  0  0  0  0  0  0  0  0  0  0
    3.6684   -5.6861    0.0000 N   0  0  0  0  0  0  0  0  0  0  0  0
    4.4673   -4.9885    0.0000 C   0  0  0  0  0  0  0  0  0  0  0  0
    5.2018   -5.4245    0.0000 C   0  0  0  0  0  0  0  0  0  0  0  0
    0.8890   -3.7360    0.0000 C   0  0  0  0  0  0  0  0  0  0  0  0
    0.0857   -4.1835    0.0000 C   0  0  0  0  0  0  0  0  0  0  0  0
    2.9986   -2.4753    0.0000 C   0  0  0  0  0  0  0  0  0  0  0  0
    3.0023   -1.5889    0.0000 C   0  0  0  0  0  0  0  0  0  0  0  0
    3.6966   -0.3387    0.0000 F   0  0  0  0  0  0  0  0  0  0  0  0
    3.7411   -1.2149    0.0000 C   0  0  0  0  0  0  0  0  0  0  0  0
    4.4497   -1.5885    0.0000 C   0  0  0  0  0  0  0  0  0  0  0  0
    4.4235   -2.4935    0.0000 C   0  0  0  0  0  0  0  0  0  0  0  0
    5.2816   -2.8889    0.0000 Br  0  0  0  0  0  0  0  0  0  0  0  0
    3.7069   -2.8851    0.0000 C   0  0  0  0  0  0  0  0  0  0  0  0
  1  2  1  0  0  0  0
  2  3  1  0  0  0  0
  3  4  2  0  0  0  0
  3  5  1  0  0  0  0
  6  7  1  0  0  0  0
  6  1  1  0  0  0  0
  7  8  1  0  0  0  0
  7  9  1  0  0  0  0
  9 10  1  0  0  0  0
 10 11  1  0  0  0  0
 11 12  1  0  0  0  0
 12  6  1  0  0  0  0
 13 12  1  0  0  0  0
 14 15  1  0  0  0  0
 16 15  2  0  0  0  0
 17 16  1  0  0  0  0
 17 28  1  0  0  0  0
 18 19  1  0  0  0  0
 18 10  1  0  0  0  0
 19 20  2  0  0  0  0
 24 20  1  0  0  0  0
 21 20  1  0  0  0  0
 21 22  1  0  0  0  0
 23 21  2  0  0  0  0
 24 25  1  0  0  0  0
 24 38  1  6  0  0  0
 25 27  2  0  0  0  0
 26 19  1  0  0  0  0
 27 28  1  0  0  0  0
 27 26  1  0  0  0  0
 28 14  2  0  0  0  0
 29 22  1  0  0  0  0
 30 29  1  0  0  0  0
 31 32  2  0  0  0  0
 31 38  1  0  0  0  0
 32 34  1  0  0  0  0
 33 34  1  0  0  0  0
 34 35  2  0  0  0  0
 36 35  1  0  0  0  0
 36 37  1  0  0  0  0
 38 36  2  0  0  0  0
M  END
> <ID>
SCHEMBL21146760

> <InChIKey>
NTGAUYRCIDVWMY-CPJFGUOBSA-N

> <MW>
617.44

> <Series_Name>
Series_9

$$$$
SCHEMBL21146762
  Mrv1719007181911592D 0   0.00000     0.00000     0

 38 41  0  0  1  0              1 V2000 
    3.0109   -9.0404    0.0000 C   0  0  0  0  0  0  0  0  0  0  0  0
    2.2592   -8.5961    0.0000 O   0  0  0  0  0  0  0  0  0  0  0  0
    3.3296   -9.4786    0.0000 C   0  0  0  0  0  0  0  0  0  0  0  0
    3.1093   -9.9738    0.0000 O   0  0  0  0  0  0  0  0  0  0  0  0
    3.8685   -9.4218    0.0000 O   0  0  0  0  0  0  0  0  0  0  0  0
    2.2759   -7.7966    0.0000 C   0  0  0  0  0  0  0  0  0  0  0  0
    1.5876   -7.3938    0.0000 C   0  0  0  0  0  0  0  0  0  0  0  0
    1.5764   -6.5384    0.0000 C   0  0  0  0  0  0  0  0  0  0  0  0
    2.2592   -6.1163    0.0000 N   0  0  0  0  0  0  0  0  0  0  0  0
    3.0151   -7.3797    0.0000 C   0  0  0  0  0  0  0  0  0  0  0  0
    3.0118   -6.5604    0.0000 C   0  0  0  0  0  0  0  0  0  0  0  0
    3.6919   -6.9430    0.0000 F   0  0  0  0  0  0  0  0  0  0  0  0
    3.6919   -7.7419    0.0000 F   0  0  0  0  0  0  0  0  0  0  0  0
    5.8133   -4.9316    0.0000 N   0  0  0  0  0  0  0  0  0  0  0  0
    6.4119   -5.5632    0.0000 C   0  0  0  0  0  0  0  0  0  0  0  0
    5.9584   -6.3170    0.0000 C   0  0  0  0  0  0  0  0  0  0  0  0
    5.1520   -6.1163    0.0000 S   0  0  0  0  0  0  0  0  0  0  0  0
    2.2666   -5.2887    0.0000 C   0  0  0  0  0  0  0  0  0  0  0  0
    3.0129   -4.8991    0.0000 C   0  0  0  0  0  0  0  0  0  0  0  0
    3.0131   -4.0632    0.0000 C   0  0  0  0  0  0  0  0  0  0  0  0
    2.3422   -3.6535    0.0000 C   0  0  0  0  0  0  0  0  0  0  0  0
    1.5704   -4.0226    0.0000 O   0  0  0  0  0  0  0  0  0  0  0  0
    2.2592   -2.8102    0.0000 O   0  0  0  0  0  0  0  0  0  0  0  0
    3.7194   -3.6369    0.0000 C   0  0  1  0  0  0  0  0  0  0  0  0
    4.3531   -4.0226    0.0000 N   0  0  0  0  0  0  0  0  0  0  0  0
    3.6643   -5.5516    0.0000 N   0  0  0  0  0  0  0  0  0  0  0  0
    4.4181   -4.9040    0.0000 C   0  0  0  0  0  0  0  0  0  0  0  0
    5.1352   -5.3038    0.0000 C   0  0  0  0  0  0  0  0  0  0  0  0
    0.8258   -3.6523    0.0000 C   0  0  0  0  0  0  0  0  0  0  0  0
    0.1918   -4.0499    0.0000 C   0  0  0  0  0  0  0  0  0  0  0  0
    3.0094   -1.5515    0.0000 C   0  0  0  0  0  0  0  0  0  0  0  0
    3.0204   -2.4333    0.0000 C   0  0  0  0  0  0  0  0  0  0  0  0
    3.7011   -1.1484    0.0000 C   0  0  0  0  0  0  0  0  0  0  0  0
    3.6919   -0.3306    0.0000 F   0  0  0  0  0  0  0  0  0  0  0  0
    4.4185   -1.5637    0.0000 C   0  0  0  0  0  0  0  0  0  0  0  0
    4.4275   -2.4229    0.0000 C   0  0  0  0  0  0  0  0  0  0  0  0
    5.2395   -2.8481    0.0000 Br  0  0  0  0  0  0  0  0  0  0  0  0
    3.6981   -2.8381    0.0000 C   0  0  0  0  0  0  0  0  0  0  0  0
  1  2  1  0  0  0  0
  3  4  2  0  0  0  0
  3  5  1  0  0  0  0
  3  1  1  0  0  0  0
  6  7  1  0  0  0  0
  6 10  1  0  0  0  0
  6  2  1  0  0  0  0
  7  8  1  0  0  0  0
  8  9  1  0  0  0  0
  9 11  1  0  0  0  0
  9 18  1  0  0  0  0
 10 11  1  0  0  0  0
 12 10  1  0  0  0  0
 13 10  1  0  0  0  0
 14 15  1  0  0  0  0
 16 15  2  0  0  0  0
 17 16  1  0  0  0  0
 17 28  1  0  0  0  0
 18 19  1  0  0  0  0
 19 20  2  0  0  0  0
 20 21  1  0  0  0  0
 24 20  1  0  0  0  0
 21 22  1  0  0  0  0
 23 21  2  0  0  0  0
 24 25  1  0  0  0  0
 24 38  1  6  0  0  0
 25 27  2  0  0  0  0
 26 19  1  0  0  0  0
 27 28  1  0  0  0  0
 27 26  1  0  0  0  0
 28 14  2  0  0  0  0
 29 22  1  0  0  0  0
 30 29  1  0  0  0  0
 31 32  2  0  0  0  0
 31 33  1  0  0  0  0
 32 38  1  0  0  0  0
 33 35  2  0  0  0  0
 34 33  1  0  0  0  0
 36 35  1  0  0  0  0
 36 37  1  0  0  0  0
 38 36  2  0  0  0  0
M  END
> <ID>
SCHEMBL21146762

> <InChIKey>
LTVNRYOMKGPFCU-OZBJMMHXSA-N

> <MW>
617.44

> <Series_Name>
Series_9

$$$$
SCHEMBL21146763
  Mrv1719007181911592D 0   0.00000     0.00000     0

 35 38  0  0  1  0              1 V2000 
    2.2640   -8.5585    0.0000 O   0  0  0  0  0  0  0  0  0  0  0  0
    3.0042   -8.9864    0.0000 C   0  0  0  0  0  0  0  0  0  0  0  0
    2.2801   -7.7178    0.0000 C   0  0  0  0  0  0  0  0  0  0  0  0
    1.5830   -7.3472    0.0000 C   0  0  0  0  0  0  0  0  0  0  0  0
    1.5728   -6.5003    0.0000 C   0  0  0  0  0  0  0  0  0  0  0  0
    2.2640   -6.0706    0.0000 N   0  0  0  0  0  0  0  0  0  0  0  0
    2.9754   -7.3331    0.0000 C   0  0  0  0  0  0  0  0  0  0  0  0
    2.9700   -6.5001    0.0000 C   0  0  0  0  0  0  0  0  0  0  0  0
    3.7568   -7.2896    0.0000 F   0  0  0  0  0  0  0  0  0  0  0  0
    3.3587   -8.0112    0.0000 F   0  0  0  0  0  0  0  0  0  0  0  0
    5.1500   -6.0457    0.0000 N   0  0  0  0  0  0  0  0  0  0  0  0
    6.0024   -6.2292    0.0000 C   0  0  0  0  0  0  0  0  0  0  0  0
    6.3868   -5.5411    0.0000 C   0  0  0  0  0  0  0  0  0  0  0  0
    5.8218   -4.9013    0.0000 S   0  0  0  0  0  0  0  0  0  0  0  0
    2.2707   -5.2564    0.0000 C   0  0  0  0  0  0  0  0  0  0  0  0
    2.9696   -4.8680    0.0000 C   0  0  0  0  0  0  0  0  0  0  0  0
    2.9709   -4.0301    0.0000 C   0  0  0  0  0  0  0  0  0  0  0  0
    2.3421   -3.6455    0.0000 C   0  0  0  0  0  0  0  0  0  0  0  0
    1.5674   -4.0056    0.0000 O   0  0  0  0  0  0  0  0  0  0  0  0
    2.2640   -2.7865    0.0000 O   0  0  0  0  0  0  0  0  0  0  0  0
    3.6565   -3.5897    0.0000 C   0  0  1  0  0  0  0  0  0  0  0  0
    4.3539   -4.0056    0.0000 N   0  0  0  0  0  0  0  0  0  0  0  0
    3.6572   -5.5108    0.0000 N   0  0  0  0  0  0  0  0  0  0  0  0
    4.3832   -4.8747    0.0000 C   0  0  0  0  0  0  0  0  0  0  0  0
    5.1115   -5.2637    0.0000 C   0  0  0  0  0  0  0  0  0  0  0  0
    0.1493   -4.0098    0.0000 C   0  0  0  0  0  0  0  0  0  0  0  0
    0.8871   -3.6355    0.0000 C   0  0  0  0  0  0  0  0  0  0  0  0
    2.9672   -2.3803    0.0000 C   0  0  0  0  0  0  0  0  0  0  0  0
    2.9684   -1.5742    0.0000 C   0  0  0  0  0  0  0  0  0  0  0  0
    3.6726   -1.1444    0.0000 C   0  0  0  0  0  0  0  0  0  0  0  0
    3.6572   -0.3235    0.0000 F   0  0  0  0  0  0  0  0  0  0  0  0
    4.3879   -2.3829    0.0000 C   0  0  0  0  0  0  0  0  0  0  0  0
    4.3948   -1.5930    0.0000 C   0  0  0  0  0  0  0  0  0  0  0  0
    5.2041   -2.7989    0.0000 Cl  0  0  0  0  0  0  0  0  0  0  0  0
    3.6712   -2.8105    0.0000 C   0  0  0  0  0  0  0  0  0  0  0  0
  1  2  1  0  0  0  0
  3  4  1  0  0  0  0
  3  1  1  0  0  0  0
  4  5  1  0  0  0  0
  5  6  1  0  0  0  0
  6  8  1  0  0  0  0
  6 15  1  0  0  0  0
  7  8  1  0  0  0  0
  7  9  1  0  0  0  0
  7  3  1  0  0  0  0
 10  7  1  0  0  0  0
 11 12  1  0  0  0  0
 12 13  2  0  0  0  0
 13 14  1  0  0  0  0
 14 25  1  0  0  0  0
 15 16  1  0  0  0  0
 16 17  2  0  0  0  0
 21 17  1  0  0  0  0
 18 17  1  0  0  0  0
 18 19  1  0  0  0  0
 20 18  2  0  0  0  0
 21 22  1  0  0  0  0
 21 35  1  6  0  0  0
 22 24  2  0  0  0  0
 23 16  1  0  0  0  0
 24 25  1  0  0  0  0
 24 23  1  0  0  0  0
 25 11  2  0  0  0  0
 26 27  1  0  0  0  0
 27 19  1  0  0  0  0
 28 29  2  0  0  0  0
 28 35  1  0  0  0  0
 29 30  1  0  0  0  0
 30 33  2  0  0  0  0
 31 30  1  0  0  0  0
 32 33  1  0  0  0  0
 32 34  1  0  0  0  0
 35 32  2  0  0  0  0
M  END
> <ID>
SCHEMBL21146763

> <InChIKey>
JCDOIAPVQAZBGE-NNBQYGFHSA-N

> <MW>
528.98

> <Series_Name>
Series_9

$$$$
SCHEMBL21146764
  Mrv1719007181911592D 0   0.00000     0.00000     0

 36 39  0  0  1  0              1 V2000 
    2.2519   -7.7557    0.0000 C   0  0  0  0  0  0  0  0  0  0  0  0
    1.5290   -7.3606    0.0000 C   0  0  0  0  0  0  0  0  0  0  0  0
    0.8163   -7.7422    0.0000 F   0  0  0  0  0  0  0  0  0  0  0  0
    0.8163   -6.9259    0.0000 F   0  0  0  0  0  0  0  0  0  0  0  0
    1.5453   -6.5146    0.0000 C   0  0  0  0  0  0  0  0  0  0  0  0
    2.2121   -6.0832    0.0000 N   0  0  0  0  0  0  0  0  0  0  0  0
    2.9736   -7.3572    0.0000 C   0  0  0  0  0  0  0  0  0  0  0  0
    2.9578   -6.5123    0.0000 C   0  0  0  0  0  0  0  0  0  0  0  0
    3.6342   -6.9259    0.0000 F   0  0  0  0  0  0  0  0  0  0  0  0
    3.6342   -7.7422    0.0000 F   0  0  0  0  0  0  0  0  0  0  0  0
    2.4359   -8.5849    0.0000 O   0  0  0  0  0  0  0  0  0  0  0  0
    5.1352   -6.0832    0.0000 S   0  0  0  0  0  0  0  0  0  0  0  0
    5.9383   -6.2680    0.0000 C   0  0  0  0  0  0  0  0  0  0  0  0
    5.7672   -4.9245    0.0000 N   0  0  0  0  0  0  0  0  0  0  0  0
    6.3412   -5.5717    0.0000 C   0  0  0  0  0  0  0  0  0  0  0  0
    2.9609   -4.8873    0.0000 C   0  0  0  0  0  0  0  0  0  0  0  0
    2.2455   -5.2992    0.0000 C   0  0  0  0  0  0  0  0  0  0  0  0
    2.9604   -4.0371    0.0000 C   0  0  0  0  0  0  0  0  0  0  0  0
    2.2932   -3.6853    0.0000 C   0  0  0  0  0  0  0  0  0  0  0  0
    1.5274   -4.0291    0.0000 O   0  0  0  0  0  0  0  0  0  0  0  0
    2.2121   -2.8177    0.0000 O   0  0  0  0  0  0  0  0  0  0  0  0
    3.6669   -3.5904    0.0000 C   0  0  1  0  0  0  0  0  0  0  0  0
    4.3451   -4.0291    0.0000 N   0  0  0  0  0  0  0  0  0  0  0  0
    3.6342   -5.5301    0.0000 N   0  0  0  0  0  0  0  0  0  0  0  0
    4.3663   -4.8901    0.0000 C   0  0  0  0  0  0  0  0  0  0  0  0
    5.0938   -5.2899    0.0000 C   0  0  0  0  0  0  0  0  0  0  0  0
    0.8404   -3.6778    0.0000 C   0  0  0  0  0  0  0  0  0  0  0  0
    0.1317   -4.0512    0.0000 C   0  0  0  0  0  0  0  0  0  0  0  0
    2.9556   -1.5903    0.0000 C   0  0  0  0  0  0  0  0  0  0  0  0
    2.9659   -2.4007    0.0000 C   0  0  0  0  0  0  0  0  0  0  0  0
    3.6702   -1.1760    0.0000 C   0  0  0  0  0  0  0  0  0  0  0  0
    3.6342   -0.3160    0.0000 F   0  0  0  0  0  0  0  0  0  0  0  0
    4.3631   -1.5870    0.0000 C   0  0  0  0  0  0  0  0  0  0  0  0
    4.3620   -2.3952    0.0000 C   0  0  0  0  0  0  0  0  0  0  0  0
    5.1793   -2.8276    0.0000 Br  0  0  0  0  0  0  0  0  0  0  0  0
    3.6670   -2.8397    0.0000 C   0  0  0  0  0  0  0  0  0  0  0  0
  1  2  1  0  0  0  0
  1  7  1  0  0  0  0
  1 11  1  0  0  0  0
  2  3  1  0  0  0  0
  2  4  1  0  0  0  0
  5  6  1  0  0  0  0
  5  2  1  0  0  0  0
  6  8  1  0  0  0  0
  6 17  1  0  0  0  0
  7  8  1  0  0  0  0
  9  7  1  0  0  0  0
 10  7  1  0  0  0  0
 12 13  1  0  0  0  0
 12 26  1  0  0  0  0
 13 15  2  0  0  0  0
 14 15  1  0  0  0  0
 16 17  1  0  0  0  0
 16 24  1  0  0  0  0
 18 16  2  0  0  0  0
 19 18  1  0  0  0  0
 19 20  1  0  0  0  0
 20 27  1  0  0  0  0
 21 19  2  0  0  0  0
 22 18  1  0  0  0  0
 22 23  1  0  0  0  0
 22 36  1  6  0  0  0
 23 25  2  0  0  0  0
 25 24  1  0  0  0  0
 25 26  1  0  0  0  0
 26 14  2  0  0  0  0
 27 28  1  0  0  0  0
 29 30  2  0  0  0  0
 29 31  1  0  0  0  0
 30 36  1  0  0  0  0
 31 33  2  0  0  0  0
 32 31  1  0  0  0  0
 34 33  1  0  0  0  0
 34 35  1  0  0  0  0
 36 34  2  0  0  0  0
M  END
> <ID>
SCHEMBL21146764

> <InChIKey>
RLOFBAOREUYKKU-INIZCTEOSA-N

> <MW>
595.38

> <Series_Name>
Series_9

$$$$
SCHEMBL21146766
  Mrv1719007181911592D 0   0.00000     0.00000     0

 38 41  0  0  1  0              1 V2000 
    5.2124   -7.5444    0.0000 C   0  0  0  0  0  0  0  0  0  0  0  0
    5.5656   -8.2146    0.0000 F   0  0  0  0  0  0  0  0  0  0  0  0
    1.8011   -7.6712    0.0000 C   0  0  0  0  0  0  0  0  0  0  0  0
    1.4130   -7.2884    0.0000 O   0  0  0  0  0  0  0  0  0  0  0  0
    1.6637   -8.1987    0.0000 O   0  0  0  0  0  0  0  0  0  0  0  0
    2.3266   -7.5264    0.0000 C   0  0  0  0  0  0  0  0  0  0  0  0
    3.0116   -7.9081    0.0000 C   0  0  0  0  0  0  0  0  0  0  0  0
    3.7998   -7.5237    0.0000 C   0  0  0  0  0  0  0  0  0  0  0  0
    3.7887   -6.7061    0.0000 C   0  0  0  0  0  0  0  0  0  0  0  0
    4.4150   -6.2346    0.0000 N   0  0  0  0  0  0  0  0  0  0  0  0
    4.4596   -7.9102    0.0000 C   0  0  0  0  0  0  0  0  0  0  0  0
    5.2069   -6.7060    0.0000 C   0  0  0  0  0  0  0  0  0  0  0  0
    5.9669   -7.4921    0.0000 F   0  0  0  0  0  0  0  0  0  0  0  0
    8.1778   -6.4218    0.0000 C   0  0  0  0  0  0  0  0  0  0  0  0
    8.6049   -5.6814    0.0000 C   0  0  0  0  0  0  0  0  0  0  0  0
    8.0006   -5.0572    0.0000 S   0  0  0  0  0  0  0  0  0  0  0  0
    7.3316   -6.2346    0.0000 N   0  0  0  0  0  0  0  0  0  0  0  0
    4.4936   -5.4008    0.0000 C   0  0  0  0  0  0  0  0  0  0  0  0
    5.1553   -5.0036    0.0000 C   0  0  0  0  0  0  0  0  0  0  0  0
    5.1873   -4.1184    0.0000 C   0  0  0  0  0  0  0  0  0  0  0  0
    4.5214   -3.7522    0.0000 C   0  0  0  0  0  0  0  0  0  0  0  0
    3.7193   -4.1207    0.0000 O   0  0  0  0  0  0  0  0  0  0  0  0
    4.4150   -2.8898    0.0000 O   0  0  0  0  0  0  0  0  0  0  0  0
    5.8947   -3.7315    0.0000 C   0  0  1  0  0  0  0  0  0  0  0  0
    6.5288   -4.1207    0.0000 N   0  0  0  0  0  0  0  0  0  0  0  0
    5.8332   -5.6458    0.0000 N   0  0  0  0  0  0  0  0  0  0  0  0
    6.5973   -5.0041    0.0000 C   0  0  0  0  0  0  0  0  0  0  0  0
    7.3080   -5.4092    0.0000 C   0  0  0  0  0  0  0  0  0  0  0  0
    3.0209   -3.7327    0.0000 C   0  0  0  0  0  0  0  0  0  0  0  0
    2.2916   -4.1477    0.0000 C   0  0  0  0  0  0  0  0  0  0  0  0
    5.1893   -1.6021    0.0000 C   0  0  0  0  0  0  0  0  0  0  0  0
    5.9130   -1.2077    0.0000 C   0  0  0  0  0  0  0  0  0  0  0  0
    5.8598   -0.3211    0.0000 F   0  0  0  0  0  0  0  0  0  0  0  0
    6.5925   -1.6032    0.0000 C   0  0  0  0  0  0  0  0  0  0  0  0
    6.5976   -2.4586    0.0000 C   0  0  0  0  0  0  0  0  0  0  0  0
    7.4306   -2.9254    0.0000 Br  0  0  0  0  0  0  0  0  0  0  0  0
    5.1794   -2.4549    0.0000 C   0  0  0  0  0  0  0  0  0  0  0  0
    5.8937   -2.8768    0.0000 C   0  0  0  0  0  0  0  0  0  0  0  0
  1  2  1  0  0  0  0
  1 11  1  0  0  0  0
  3  4  2  0  0  0  0
  3  5  1  0  0  0  0
  3  6  1  0  0  0  0
  6  7  2  0  0  0  0
  7  8  1  0  0  0  0
  8 11  1  0  0  0  0
  9 10  1  0  0  0  0
  9  8  1  0  0  0  0
 12 10  1  0  0  0  0
 12  1  1  0  0  0  0
 13  1  1  0  0  0  0
 14 15  2  0  0  0  0
 15 16  1  0  0  0  0
 16 28  1  0  0  0  0
 17 14  1  0  0  0  0
 18 19  1  0  0  0  0
 18 10  1  0  0  0  0
 19 20  2  0  0  0  0
 20 21  1  0  0  0  0
 24 20  1  0  0  0  0
 21 22  1  0  0  0  0
 23 21  2  0  0  0  0
 24 25  1  0  0  0  0
 24 38  1  6  0  0  0
 25 27  2  0  0  0  0
 26 19  1  0  0  0  0
 27 28  1  0  0  0  0
 27 26  1  0  0  0  0
 28 17  2  0  0  0  0
 29 22  1  0  0  0  0
 29 30  1  0  0  0  0
 31 32  1  0  0  0  0
 32 34  2  0  0  0  0
 33 32  1  0  0  0  0
 35 34  1  0  0  0  0
 35 36  1  0  0  0  0
 37 31  2  0  0  0  0
 37 38  1  0  0  0  0
 38 35  2  0  0  0  0
M  END
> <ID>
SCHEMBL21146766

> <InChIKey>
YJGSCDCPALSWQJ-XMTQZJMTSA-N

> <MW>
613.45

> <Series_Name>
Series_9

$$$$
SCHEMBL21146767
  Mrv1719007181911592D 0   0.00000     0.00000     0

 37 40  0  0  1  0              1 V2000 
    1.8190   -7.6271    0.0000 C   0  0  0  0  0  0  0  0  0  0  0  0
    1.4282   -7.2486    0.0000 O   0  0  0  0  0  0  0  0  0  0  0  0
    1.6866   -8.1547    0.0000 O   0  0  0  0  0  0  0  0  0  0  0  0
    2.3421   -7.4778    0.0000 C   0  0  0  0  0  0  0  0  0  0  0  0
    3.0485   -7.8742    0.0000 C   0  0  0  0  0  0  0  0  0  0  0  0
    3.7665   -6.6475    0.0000 C   0  0  0  0  0  0  0  0  0  0  0  0
    4.4119   -6.2042    0.0000 N   0  0  0  0  0  0  0  0  0  0  0  0
    3.7716   -7.4758    0.0000 C   0  0  0  0  0  0  0  0  0  0  0  0
    4.4235   -7.8765    0.0000 C   0  0  0  0  0  0  0  0  0  0  0  0
    5.1745   -7.4712    0.0000 C   0  0  0  0  0  0  0  0  0  0  0  0
    5.1729   -6.6520    0.0000 C   0  0  0  0  0  0  0  0  0  0  0  0
    5.8458   -7.8863    0.0000 F   0  0  0  0  0  0  0  0  0  0  0  0
    8.5414   -5.7029    0.0000 C   0  0  0  0  0  0  0  0  0  0  0  0
    7.9691   -5.0461    0.0000 S   0  0  0  0  0  0  0  0  0  0  0  0
    8.1531   -6.3648    0.0000 C   0  0  0  0  0  0  0  0  0  0  0  0
    7.3073   -6.2042    0.0000 N   0  0  0  0  0  0  0  0  0  0  0  0
    5.1836   -4.9674    0.0000 C   0  0  0  0  0  0  0  0  0  0  0  0
    4.4653   -5.3733    0.0000 C   0  0  0  0  0  0  0  0  0  0  0  0
    4.5126   -3.7297    0.0000 C   0  0  0  0  0  0  0  0  0  0  0  0
    5.1718   -4.1122    0.0000 C   0  0  0  0  0  0  0  0  0  0  0  0
    3.7226   -4.1086    0.0000 O   0  0  0  0  0  0  0  0  0  0  0  0
    4.4119   -2.8678    0.0000 O   0  0  0  0  0  0  0  0  0  0  0  0
    5.8536   -3.7073    0.0000 C   0  0  1  0  0  0  0  0  0  0  0  0
    6.5076   -4.1086    0.0000 N   0  0  0  0  0  0  0  0  0  0  0  0
    5.7907   -5.6252    0.0000 N   0  0  0  0  0  0  0  0  0  0  0  0
    6.6185   -4.9692    0.0000 C   0  0  0  0  0  0  0  0  0  0  0  0
    7.2821   -5.3737    0.0000 C   0  0  0  0  0  0  0  0  0  0  0  0
    3.0541   -3.7161    0.0000 C   0  0  0  0  0  0  0  0  0  0  0  0
    2.3300   -4.1064    0.0000 C   0  0  0  0  0  0  0  0  0  0  0  0
    5.8570   -1.1550    0.0000 C   0  0  0  0  0  0  0  0  0  0  0  0
    5.1729   -1.6066    0.0000 C   0  0  0  0  0  0  0  0  0  0  0  0
    5.8183   -0.3309    0.0000 F   0  0  0  0  0  0  0  0  0  0  0  0
    6.5954   -1.6033    0.0000 C   0  0  0  0  0  0  0  0  0  0  0  0
    6.6008   -2.4570    0.0000 C   0  0  0  0  0  0  0  0  0  0  0  0
    7.3670   -2.8747    0.0000 Cl  0  0  0  0  0  0  0  0  0  0  0  0
    5.8370   -2.8273    0.0000 C   0  0  0  0  0  0  0  0  0  0  0  0
    5.1874   -2.4581    0.0000 C   0  0  0  0  0  0  0  0  0  0  0  0
  1  2  2  0  0  0  0
  1  3  1  0  0  0  0
  1  4  1  0  0  0  0
  4  5  2  0  0  0  0
  5  8  1  0  0  0  0
  6  7  1  0  0  0  0
  6  8  1  0  0  0  0
  8  9  1  0  0  0  0
  9 10  1  0  0  0  0
 10 12  1  0  0  0  0
 11  7  1  0  0  0  0
 11 10  1  0  0  0  0
 13 14  1  0  0  0  0
 14 27  1  0  0  0  0
 15 13  2  0  0  0  0
 16 15  1  0  0  0  0
 17 18  1  0  0  0  0
 17 25  1  0  0  0  0
 18  7  1  0  0  0  0
 19 20  1  0  0  0  0
 19 21  1  0  0  0  0
 20 17  2  0  0  0  0
 21 28  1  0  0  0  0
 22 19  2  0  0  0  0
 23 20  1  0  0  0  0
 23 24  1  0  0  0  0
 23 36  1  6  0  0  0
 24 26  2  0  0  0  0
 26 25  1  0  0  0  0
 26 27  1  0  0  0  0
 27 16  2  0  0  0  0
 28 29  1  0  0  0  0
 30 31  1  0  0  0  0
 30 33  2  0  0  0  0
 31 37  2  0  0  0  0
 32 30  1  0  0  0  0
 33 34  1  0  0  0  0
 34 35  1  0  0  0  0
 36 34  2  0  0  0  0
 37 36  1  0  0  0  0
M  END
> <ID>
SCHEMBL21146767

> <InChIKey>
RQUAICAFFJCUBL-KDUNIWKNSA-N

> <MW>
551.01

> <Series_Name>
Series_9

$$$$
SCHEMBL21146768
  Mrv1719007181911592D 0   0.00000     0.00000     0

 37 40  0  0  1  0              1 V2000 
    1.8226   -7.6543    0.0000 C   0  0  0  0  0  0  0  0  0  0  0  0
    1.4312   -7.2855    0.0000 O   0  0  0  0  0  0  0  0  0  0  0  0
    1.6987   -8.1777    0.0000 O   0  0  0  0  0  0  0  0  0  0  0  0
    2.3376   -7.4999    0.0000 C   0  0  0  0  0  0  0  0  0  0  0  0
    3.7427   -7.4847    0.0000 C   0  0  0  0  0  0  0  0  0  0  0  0
    3.7450   -6.6229    0.0000 C   0  0  0  0  0  0  0  0  0  0  0  0
    4.4020   -6.2215    0.0000 N   0  0  0  0  0  0  0  0  0  0  0  0
    4.4247   -7.9085    0.0000 C   0  0  0  0  0  0  0  0  0  0  0  0
    5.1825   -6.6385    0.0000 C   0  0  0  0  0  0  0  0  0  0  0  0
    5.1944   -7.4906    0.0000 C   0  0  0  0  0  0  0  0  0  0  0  0
    5.8693   -7.9236    0.0000 F   0  0  0  0  0  0  0  0  0  0  0  0
    3.0159   -7.9227    0.0000 C   0  0  0  0  0  0  0  0  0  0  0  0
    8.5396   -5.6664    0.0000 C   0  0  0  0  0  0  0  0  0  0  0  0
    7.9823   -5.0476    0.0000 S   0  0  0  0  0  0  0  0  0  0  0  0
    8.1576   -6.3976    0.0000 C   0  0  0  0  0  0  0  0  0  0  0  0
    7.3073   -6.2215    0.0000 N   0  0  0  0  0  0  0  0  0  0  0  0
    4.4392   -5.3702    0.0000 C   0  0  0  0  0  0  0  0  0  0  0  0
    5.1795   -4.9557    0.0000 C   0  0  0  0  0  0  0  0  0  0  0  0
    5.1925   -4.1039    0.0000 C   0  0  0  0  0  0  0  0  0  0  0  0
    4.5410   -3.7426    0.0000 C   0  0  0  0  0  0  0  0  0  0  0  0
    3.6977   -4.1380    0.0000 O   0  0  0  0  0  0  0  0  0  0  0  0
    4.4020   -2.8467    0.0000 O   0  0  0  0  0  0  0  0  0  0  0  0
    5.8678   -3.7221    0.0000 C   0  0  1  0  0  0  0  0  0  0  0  0
    6.5149   -4.1380    0.0000 N   0  0  0  0  0  0  0  0  0  0  0  0
    5.8400   -5.6346    0.0000 N   0  0  0  0  0  0  0  0  0  0  0  0
    6.5959   -4.9625    0.0000 C   0  0  0  0  0  0  0  0  0  0  0  0
    7.2825   -5.3766    0.0000 C   0  0  0  0  0  0  0  0  0  0  0  0
    3.0257   -3.7174    0.0000 C   0  0  0  0  0  0  0  0  0  0  0  0
    2.3435   -4.1037    0.0000 C   0  0  0  0  0  0  0  0  0  0  0  0
    5.1926   -1.5813    0.0000 C   0  0  0  0  0  0  0  0  0  0  0  0
    5.8983   -1.1774    0.0000 C   0  0  0  0  0  0  0  0  0  0  0  0
    5.8693   -0.3228    0.0000 F   0  0  0  0  0  0  0  0  0  0  0  0
    6.5847   -1.5837    0.0000 C   0  0  0  0  0  0  0  0  0  0  0  0
    6.5511   -2.4694    0.0000 C   0  0  0  0  0  0  0  0  0  0  0  0
    7.4127   -2.8885    0.0000 Br  0  0  0  0  0  0  0  0  0  0  0  0
    5.1825   -2.4254    0.0000 C   0  0  0  0  0  0  0  0  0  0  0  0
    5.8721   -2.8398    0.0000 C   0  0  0  0  0  0  0  0  0  0  0  0
  1  2  2  0  0  0  0
  1  3  1  0  0  0  0
  1  4  1  0  0  0  0
  4 12  2  0  0  0  0
  5  6  1  0  0  0  0
  5  8  1  0  0  0  0
  6  7  1  0  0  0  0
  7 17  1  0  0  0  0
  9  7  1  0  0  0  0
  9 10  1  0  0  0  0
 10 11  1  0  0  0  0
 10  8  1  0  0  0  0
 12  5  1  0  0  0  0
 13 14  1  0  0  0  0
 14 27  1  0  0  0  0
 15 13  2  0  0  0  0
 16 15  1  0  0  0  0
 17 18  1  0  0  0  0
 18 19  2  0  0  0  0
 19 20  1  0  0  0  0
 23 19  1  0  0  0  0
 20 21  1  0  0  0  0
 21 28  1  0  0  0  0
 22 20  2  0  0  0  0
 23 24  1  0  0  0  0
 23 37  1  6  0  0  0
 24 26  2  0  0  0  0
 25 18  1  0  0  0  0
 26 27  1  0  0  0  0
 26 25  1  0  0  0  0
 27 16  2  0  0  0  0
 28 29  1  0  0  0  0
 30 31  1  0  0  0  0
 31 33  2  0  0  0  0
 32 31  1  0  0  0  0
 34 33  1  0  0  0  0
 34 35  1  0  0  0  0
 36 37  1  0  0  0  0
 36 30  2  0  0  0  0
 37 34  2  0  0  0  0
M  END
> <ID>
SCHEMBL21146768

> <InChIKey>
BYSLKAZGSQUFOC-KDUNIWKNSA-N

> <MW>
595.46

> <Series_Name>
Series_9

$$$$
SCHEMBL21146799
  Mrv1719007181912192D 0   0.00000     0.00000     0

 37 40  0  0  1  0              1 V2000 
    5.3515   -7.5543    0.0000 C   0  0  0  0  0  0  0  0  0  0  0  0
    4.5571   -7.5393    0.0000 C   0  0  0  0  0  0  0  0  0  0  0  0
    4.2887   -6.7346    0.0000 C   0  0  0  0  0  0  0  0  0  0  0  0
    3.5086   -6.4664    0.0000 C   0  0  0  0  0  0  0  0  0  0  0  0
    2.8487   -7.0268    0.0000 S   0  0  0  0  0  0  0  0  0  0  0  0
    4.9061   -6.2355    0.0000 N   0  0  0  0  0  0  0  0  0  0  0  0
    5.5927   -6.7291    0.0000 C   0  0  0  0  0  0  0  0  0  0  0  0
    5.6975   -8.2296    0.0000 F   0  0  0  0  0  0  0  0  0  0  0  0
    0.5382   -7.0584    0.0000 O   0  0  0  0  0  0  0  0  0  0  0  0
    1.6244   -7.2843    0.0000 C   0  0  0  0  0  0  0  0  0  0  0  0
    2.0897   -6.8231    0.0000 C   0  0  0  0  0  0  0  0  0  0  0  0
    1.6776   -8.1663    0.0000 O   0  0  0  0  0  0  0  0  0  0  0  0
    8.4512   -5.0327    0.0000 N   0  0  0  0  0  0  0  0  0  0  0  0
    9.0161   -5.6665    0.0000 C   0  0  0  0  0  0  0  0  0  0  0  0
    8.6354   -6.3853    0.0000 C   0  0  0  0  0  0  0  0  0  0  0  0
    7.7865   -6.2355    0.0000 S   0  0  0  0  0  0  0  0  0  0  0  0
    4.9635   -5.3723    0.0000 C   0  0  0  0  0  0  0  0  0  0  0  0
    5.6460   -4.9958    0.0000 C   0  0  0  0  0  0  0  0  0  0  0  0
    5.6561   -4.1227    0.0000 C   0  0  0  0  0  0  0  0  0  0  0  0
    4.8576   -3.7657    0.0000 C   0  0  0  0  0  0  0  0  0  0  0  0
    4.2098   -4.1464    0.0000 O   0  0  0  0  0  0  0  0  0  0  0  0
    4.9378   -2.8804    0.0000 O   0  0  0  0  0  0  0  0  0  0  0  0
    6.3509   -3.6223    0.0000 C   0  0  1  0  0  0  0  0  0  0  0  0
    7.0268   -4.1148    0.0000 N   0  0  0  0  0  0  0  0  0  0  0  0
    6.2988   -5.6658    0.0000 N   0  0  0  0  0  0  0  0  0  0  0  0
    7.0468   -4.9942    0.0000 C   0  0  0  0  0  0  0  0  0  0  0  0
    7.7663   -5.3960    0.0000 C   0  0  0  0  0  0  0  0  0  0  0  0
    3.4667   -3.7433    0.0000 C   0  0  0  0  0  0  0  0  0  0  0  0
    2.8447   -4.1144    0.0000 C   0  0  0  0  0  0  0  0  0  0  0  0
    5.6432   -1.5920    0.0000 C   0  0  0  0  0  0  0  0  0  0  0  0
    5.6549   -2.4790    0.0000 C   0  0  0  0  0  0  0  0  0  0  0  0
    6.3403   -1.1927    0.0000 C   0  0  0  0  0  0  0  0  0  0  0  0
    6.2988   -0.3482    0.0000 F   0  0  0  0  0  0  0  0  0  0  0  0
    7.0452   -1.5923    0.0000 C   0  0  0  0  0  0  0  0  0  0  0  0
    7.0395   -2.4630    0.0000 C   0  0  0  0  0  0  0  0  0  0  0  0
    7.8547   -2.8883    0.0000 Cl  0  0  0  0  0  0  0  0  0  0  0  0
    6.3272   -2.8934    0.0000 C   0  0  0  0  0  0  0  0  0  0  0  0
  1  2  1  0  0  0  0
  1  8  1  0  0  0  0
  3  4  1  0  0  0  0
  3  6  1  0  0  0  0
  3  2  1  0  0  0  0
  5  4  1  0  0  0  0
  5 11  1  0  0  0  0
  6  7  1  0  0  0  0
  6 17  1  0  0  0  0
  7  1  1  0  0  0  0
  9 10  1  0  0  0  0
 10 12  2  0  0  0  0
 11 10  1  0  0  0  0
 13 14  1  0  0  0  0
 15 14  2  0  0  0  0
 16 15  1  0  0  0  0
 16 27  1  0  0  0  0
 17 18  1  0  0  0  0
 18 19  2  0  0  0  0
 19 20  1  0  0  0  0
 23 19  1  0  0  0  0
 20 22  2  0  0  0  0
 21 20  1  0  0  0  0
 23 24  1  0  0  0  0
 23 37  1  6  0  0  0
 24 26  2  0  0  0  0
 25 18  1  0  0  0  0
 26 27  1  0  0  0  0
 26 25  1  0  0  0  0
 27 13  2  0  0  0  0
 28 21  1  0  0  0  0
 29 28  1  0  0  0  0
 30 31  2  0  0  0  0
 30 32  1  0  0  0  0
 31 37  1  0  0  0  0
 32 34  2  0  0  0  0
 33 32  1  0  0  0  0
 35 36  1  0  0  0  0
 35 34  1  0  0  0  0
 37 35  2  0  0  0  0
M  END
> <ID>
SCHEMBL21146799

> <InChIKey>
QMNVMQYTZZPDMX-XFMWISLNSA-N

> <MW>
571.05

> <Series_Name>
Series_4

$$$$
SCHEMBL21146801
  Mrv1719007181912192D 0   0.00000     0.00000     0

 37 40  0  0  1  0              1 V2000 
    2.1272   -7.5473    0.0000 O   0  0  0  0  0  0  0  0  0  0  0  0
    2.4417   -8.3684    0.0000 C   0  0  0  0  0  0  0  0  0  0  0  0
    3.5551   -7.8970    0.0000 O   0  0  0  0  0  0  0  0  0  0  0  0
    3.0863   -8.5598    0.0000 C   0  0  0  0  0  0  0  0  0  0  0  0
    1.5590   -8.9169    0.0000 O   0  0  0  0  0  0  0  0  0  0  0  0
    4.3224   -8.0106    0.0000 C   0  0  0  0  0  0  0  0  0  0  0  0
    4.8495   -7.3263    0.0000 C   0  0  0  0  0  0  0  0  0  0  0  0
    4.6088   -6.5545    0.0000 C   0  0  0  0  0  0  0  0  0  0  0  0
    5.2161   -6.0320    0.0000 N   0  0  0  0  0  0  0  0  0  0  0  0
    5.9155   -6.5344    0.0000 C   0  0  0  0  0  0  0  0  0  0  0  0
    5.6885   -7.3373    0.0000 C   0  0  0  0  0  0  0  0  0  0  0  0
    6.0320   -8.0135    0.0000 F   0  0  0  0  0  0  0  0  0  0  0  0
    8.8662   -6.2113    0.0000 C   0  0  0  0  0  0  0  0  0  0  0  0
    9.2839   -5.4971    0.0000 C   0  0  0  0  0  0  0  0  0  0  0  0
    8.7129   -4.8955    0.0000 N   0  0  0  0  0  0  0  0  0  0  0  0
    8.0718   -6.0320    0.0000 S   0  0  0  0  0  0  0  0  0  0  0  0
    5.2648   -5.2201    0.0000 C   0  0  0  0  0  0  0  0  0  0  0  0
    5.9533   -4.8566    0.0000 C   0  0  0  0  0  0  0  0  0  0  0  0
    5.9615   -4.0041    0.0000 C   0  0  0  0  0  0  0  0  0  0  0  0
    5.1635   -3.6351    0.0000 C   0  0  0  0  0  0  0  0  0  0  0  0
    4.5459   -3.9922    0.0000 O   0  0  0  0  0  0  0  0  0  0  0  0
    5.2452   -2.7975    0.0000 O   0  0  0  0  0  0  0  0  0  0  0  0
    6.6398   -3.5079    0.0000 C   0  0  1  0  0  0  0  0  0  0  0  0
    7.2850   -3.9922    0.0000 N   0  0  0  0  0  0  0  0  0  0  0  0
    6.6148   -5.4929    0.0000 N   0  0  0  0  0  0  0  0  0  0  0  0
    7.3304   -4.8610    0.0000 C   0  0  0  0  0  0  0  0  0  0  0  0
    8.0535   -5.2311    0.0000 C   0  0  0  0  0  0  0  0  0  0  0  0
    3.8651   -3.6134    0.0000 C   0  0  0  0  0  0  0  0  0  0  0  0
    3.2008   -4.0206    0.0000 C   0  0  0  0  0  0  0  0  0  0  0  0
    5.9539   -2.3811    0.0000 C   0  0  0  0  0  0  0  0  0  0  0  0
    5.9539   -1.5522    0.0000 C   0  0  0  0  0  0  0  0  0  0  0  0
    6.6616   -1.1593    0.0000 C   0  0  0  0  0  0  0  0  0  0  0  0
    6.6148   -0.3206    0.0000 F   0  0  0  0  0  0  0  0  0  0  0  0
    7.3337   -1.5530    0.0000 C   0  0  0  0  0  0  0  0  0  0  0  0
    7.3317   -2.3780    0.0000 C   0  0  0  0  0  0  0  0  0  0  0  0
    8.1494   -2.8047    0.0000 Cl  0  0  0  0  0  0  0  0  0  0  0  0
    6.6331   -2.8232    0.0000 C   0  0  0  0  0  0  0  0  0  0  0  0
  1  2  2  0  0  0  0
  2  4  1  0  0  0  0
  2  5  1  0  0  0  0
  3  4  1  0  0  0  0
  6  7  1  0  0  0  0
  6  3  1  0  0  0  0
  8  9  1  0  0  0  0
  8  7  1  0  0  0  0
  9 10  1  0  0  0  0
 10 11  1  0  0  0  0
 11 12  1  0  0  0  0
 11  7  1  0  0  0  0
 13 14  2  0  0  0  0
 15 14  1  0  0  0  0
 16 13  1  0  0  0  0
 16 27  1  0  0  0  0
 17 18  1  0  0  0  0
 17  9  1  0  0  0  0
 18 19  2  0  0  0  0
 19 20  1  0  0  0  0
 23 19  1  0  0  0  0
 20 22  2  0  0  0  0
 21 20  1  0  0  0  0
 23 24  1  0  0  0  0
 23 37  1  6  0  0  0
 24 26  2  0  0  0  0
 25 18  1  0  0  0  0
 26 27  1  0  0  0  0
 26 25  1  0  0  0  0
 27 15  2  0  0  0  0
 28 21  1  0  0  0  0
 29 28  1  0  0  0  0
 30 31  2  0  0  0  0
 30 37  1  0  0  0  0
 31 32  1  0  0  0  0
 32 34  2  0  0  0  0
 33 32  1  0  0  0  0
 35 34  1  0  0  0  0
 35 36  1  0  0  0  0
 37 35  2  0  0  0  0
M  END
> <ID>
SCHEMBL21146801

> <InChIKey>
QJXGIRBNIOQDSR-HAKZDTQMSA-N

> <MW>
554.99

> <Series_Name>
Series_4

$$$$
SCHEMBL21146802
  Mrv1719007181912192D 0   0.00000     0.00000     0

 37 40  0  0  1  0              1 V2000 
    2.2152   -7.7531    0.0000 O   0  0  0  0  0  0  0  0  0  0  0  0
    2.5494   -8.5899    0.0000 C   0  0  0  0  0  0  0  0  0  0  0  0
    3.6920   -8.0915    0.0000 O   0  0  0  0  0  0  0  0  0  0  0  0
    3.2400   -8.7731    0.0000 C   0  0  0  0  0  0  0  0  0  0  0  0
    1.6306   -9.1376    0.0000 O   0  0  0  0  0  0  0  0  0  0  0  0
    4.5536   -8.1626    0.0000 C   0  0  0  0  0  0  0  0  0  0  0  0
    5.0480   -7.5197    0.0000 C   0  0  0  0  0  0  0  0  0  0  0  0
    4.7747   -6.7298    0.0000 C   0  0  0  0  0  0  0  0  0  0  0  0
    5.3842   -6.2148    0.0000 N   0  0  0  0  0  0  0  0  0  0  0  0
    6.1181   -6.7206    0.0000 C   0  0  0  0  0  0  0  0  0  0  0  0
    5.8738   -7.5245    0.0000 C   0  0  0  0  0  0  0  0  0  0  0  0
    6.2456   -8.2147    0.0000 F   0  0  0  0  0  0  0  0  0  0  0  0
    9.0146   -5.0149    0.0000 N   0  0  0  0  0  0  0  0  0  0  0  0
    9.5947   -5.6894    0.0000 C   0  0  0  0  0  0  0  0  0  0  0  0
    9.1806   -6.3802    0.0000 C   0  0  0  0  0  0  0  0  0  0  0  0
    8.3378   -6.2148    0.0000 S   0  0  0  0  0  0  0  0  0  0  0  0
    5.4543   -5.3622    0.0000 C   0  0  0  0  0  0  0  0  0  0  0  0
    6.1633   -4.9743    0.0000 C   0  0  0  0  0  0  0  0  0  0  0  0
    6.1652   -4.1020    0.0000 C   0  0  0  0  0  0  0  0  0  0  0  0
    5.5060   -3.7488    0.0000 C   0  0  0  0  0  0  0  0  0  0  0  0
    4.7073   -4.1227    0.0000 O   0  0  0  0  0  0  0  0  0  0  0  0
    5.4149   -2.8613    0.0000 O   0  0  0  0  0  0  0  0  0  0  0  0
    6.8779   -3.6991    0.0000 C   0  0  1  0  0  0  0  0  0  0  0  0
    7.5378   -4.1227    0.0000 N   0  0  0  0  0  0  0  0  0  0  0  0
    6.8302   -5.6457    0.0000 N   0  0  0  0  0  0  0  0  0  0  0  0
    7.5869   -4.9779    0.0000 C   0  0  0  0  0  0  0  0  0  0  0  0
    8.3220   -5.3727    0.0000 C   0  0  0  0  0  0  0  0  0  0  0  0
    3.2920   -4.1139    0.0000 C   0  0  0  0  0  0  0  0  0  0  0  0
    4.0769   -3.7344    0.0000 C   0  0  0  0  0  0  0  0  0  0  0  0
    6.1614   -2.4828    0.0000 C   0  0  0  0  0  0  0  0  0  0  0  0
    6.1648   -1.6034    0.0000 C   0  0  0  0  0  0  0  0  0  0  0  0
    6.8302   -0.3384    0.0000 F   0  0  0  0  0  0  0  0  0  0  0  0
    6.8756   -1.1993    0.0000 C   0  0  0  0  0  0  0  0  0  0  0  0
    7.5911   -1.6099    0.0000 C   0  0  0  0  0  0  0  0  0  0  0  0
    7.5876   -2.4822    0.0000 C   0  0  0  0  0  0  0  0  0  0  0  0
    8.4199   -2.8959    0.0000 Br  0  0  0  0  0  0  0  0  0  0  0  0
    6.8676   -2.8811    0.0000 C   0  0  0  0  0  0  0  0  0  0  0  0
  1  2  2  0  0  0  0
  2  4  1  0  0  0  0
  2  5  1  0  0  0  0
  3  4  1  0  0  0  0
  6  7  1  0  0  0  0
  6  3  1  0  0  0  0
  8  9  1  0  0  0  0
  8  7  1  0  0  0  0
  9 10  1  0  0  0  0
  9 17  1  0  0  0  0
 10 11  1  0  0  0  0
 11 12  1  0  0  0  0
 11  7  1  0  0  0  0
 13 14  1  0  0  0  0
 15 14  2  0  0  0  0
 16 15  1  0  0  0  0
 16 27  1  0  0  0  0
 17 18  1  0  0  0  0
 18 19  2  0  0  0  0
 23 19  1  0  0  0  0
 20 19  1  0  0  0  0
 20 21  1  0  0  0  0
 22 20  2  0  0  0  0
 23 24  1  0  0  0  0
 23 37  1  6  0  0  0
 24 26  2  0  0  0  0
 25 18  1  0  0  0  0
 26 27  1  0  0  0  0
 26 25  1  0  0  0  0
 27 13  2  0  0  0  0
 28 29  1  0  0  0  0
 29 21  1  0  0  0  0
 30 31  2  0  0  0  0
 30 37  1  0  0  0  0
 31 33  1  0  0  0  0
 32 33  1  0  0  0  0
 33 34  2  0  0  0  0
 35 34  1  0  0  0  0
 35 36  1  0  0  0  0
 37 35  2  0  0  0  0
M  END
> <ID>
SCHEMBL21146802

> <InChIKey>
JZYBHMDIKITHDY-HAKZDTQMSA-N

> <MW>
599.45

> <Series_Name>
Series_4

$$$$
SCHEMBL21146824
  Mrv1719007181912252D 0   0.00000     0.00000     0

 38 41  0  0  1  0              1 V2000 
    5.3934   -7.5208    0.0000 C   0  0  0  0  0  0  0  0  0  0  0  0
    4.5559   -7.5069    0.0000 C   0  0  0  0  0  0  0  0  0  0  0  0
    4.3087   -6.7190    0.0000 C   0  0  0  0  0  0  0  0  0  0  0  0
    2.9016   -6.9818    0.0000 S   0  0  0  0  0  0  0  0  0  0  0  0
    3.4912   -6.4454    0.0000 C   0  0  0  0  0  0  0  0  0  0  0  0
    4.9265   -6.1657    0.0000 N   0  0  0  0  0  0  0  0  0  0  0  0
    5.6373   -6.7328    0.0000 C   0  0  0  0  0  0  0  0  0  0  0  0
    6.1960   -7.4956    0.0000 F   0  0  0  0  0  0  0  0  0  0  0  0
    5.7728   -8.2512    0.0000 F   0  0  0  0  0  0  0  0  0  0  0  0
    0.5289   -7.0423    0.0000 O   0  0  0  0  0  0  0  0  0  0  0  0
    1.6106   -7.2515    0.0000 C   0  0  0  0  0  0  0  0  0  0  0  0
    2.1866   -6.7853    0.0000 C   0  0  0  0  0  0  0  0  0  0  0  0
    1.6926   -8.1605    0.0000 O   0  0  0  0  0  0  0  0  0  0  0  0
    7.8583   -6.1657    0.0000 S   0  0  0  0  0  0  0  0  0  0  0  0
    8.7304   -6.3348    0.0000 C   0  0  0  0  0  0  0  0  0  0  0  0
    8.4930   -4.9870    0.0000 N   0  0  0  0  0  0  0  0  0  0  0  0
    9.0908   -5.6504    0.0000 C   0  0  0  0  0  0  0  0  0  0  0  0
    4.9366   -5.3580    0.0000 C   0  0  0  0  0  0  0  0  0  0  0  0
    5.6898   -4.9454    0.0000 C   0  0  0  0  0  0  0  0  0  0  0  0
    5.7024   -4.0830    0.0000 C   0  0  0  0  0  0  0  0  0  0  0  0
    5.0199   -3.6839    0.0000 C   0  0  0  0  0  0  0  0  0  0  0  0
    4.2314   -4.0802    0.0000 O   0  0  0  0  0  0  0  0  0  0  0  0
    4.9265   -2.8109    0.0000 O   0  0  0  0  0  0  0  0  0  0  0  0
    6.3772   -3.6352    0.0000 C   0  0  1  0  0  0  0  0  0  0  0  0
    7.0423   -4.0802    0.0000 N   0  0  0  0  0  0  0  0  0  0  0  0
    6.3471   -5.6066    0.0000 N   0  0  0  0  0  0  0  0  0  0  0  0
    7.0897   -4.9510    0.0000 C   0  0  0  0  0  0  0  0  0  0  0  0
    7.8073   -5.3580    0.0000 C   0  0  0  0  0  0  0  0  0  0  0  0
    3.5135   -3.6704    0.0000 C   0  0  0  0  0  0  0  0  0  0  0  0
    2.8662   -4.0787    0.0000 C   0  0  0  0  0  0  0  0  0  0  0  0
    5.6905   -1.5486    0.0000 C   0  0  0  0  0  0  0  0  0  0  0  0
    5.7011   -2.4281    0.0000 C   0  0  0  0  0  0  0  0  0  0  0  0
    6.3872   -1.1389    0.0000 C   0  0  0  0  0  0  0  0  0  0  0  0
    6.3471   -0.3023    0.0000 P   0  0  0  0  0  0  0  0  0  0  0  0
    7.0933   -1.5479    0.0000 C   0  0  0  0  0  0  0  0  0  0  0  0
    7.0925   -2.4080    0.0000 C   0  0  0  0  0  0  0  0  0  0  0  0
    7.9085   -2.8184    0.0000 Cl  0  0  0  0  0  0  0  0  0  0  0  0
    6.3847   -2.8350    0.0000 C   0  0  0  0  0  0  0  0  0  0  0  0
  1  2  1  0  0  0  0
  1  7  1  0  0  0  0
  1  9  1  0  0  0  0
  2  3  1  0  0  0  0
  4  5  1  0  0  0  0
  4 12  1  0  0  0  0
  5  3  1  0  0  0  0
  6  3  1  0  0  0  0
  6  7  1  0  0  0  0
  6 18  1  0  0  0  0
  8  1  1  0  0  0  0
 10 11  1  0  0  0  0
 11 13  2  0  0  0  0
 12 11  1  0  0  0  0
 14 15  1  0  0  0  0
 14 28  1  0  0  0  0
 15 17  2  0  0  0  0
 16 17  1  0  0  0  0
 18 19  1  0  0  0  0
 19 20  2  0  0  0  0
 20 21  1  0  0  0  0
 24 20  1  0  0  0  0
 21 22  1  0  0  0  0
 23 21  2  0  0  0  0
 24 25  1  0  0  0  0
 24 38  1  6  0  0  0
 25 27  2  0  0  0  0
 26 19  1  0  0  0  0
 27 28  1  0  0  0  0
 27 26  1  0  0  0  0
 28 16  2  0  0  0  0
 29 22  1  0  0  0  0
 30 29  1  0  0  0  0
 31 32  2  0  0  0  0
 31 33  1  0  0  0  0
 32 38  1  0  0  0  0
 33 35  2  0  0  0  0
 34 33  1  0  0  0  0
 36 35  1  0  0  0  0
 36 37  1  0  0  0  0
 38 36  2  0  0  0  0
M  END
> <ID>
SCHEMBL21146824

> <InChIKey>
MGFSQJJBOLPAGM-JDOQCHFPSA-N

> <MW>
603.04

> <Series_Name>
Series_4

$$$$
SCHEMBL21146825
  Mrv1719007181912262D 0   0.00000     0.00000     0

 34 37  0  0  1  0              1 V2000 
    1.5372   -7.3574    0.0000 C   0  0  0  0  0  0  0  0  0  0  0  0
    1.5327   -6.5233    0.0000 C   0  0  0  0  0  0  0  0  0  0  0  0
    2.1992   -6.0920    0.0000 N   0  0  0  0  0  0  0  0  0  0  0  0
    2.2425   -7.7605    0.0000 C   0  0  1  0  0  0  0  0  0  0  0  0
    2.9424   -7.3556    0.0000 C   0  0  0  0  0  0  0  0  0  0  0  0
    2.9144   -6.5239    0.0000 C   0  0  0  0  0  0  0  0  0  0  0  0
    3.5895   -6.9263    0.0000 F   0  0  0  0  0  0  0  0  0  0  0  0
    3.5895   -7.7604    0.0000 F   0  0  0  0  0  0  0  0  0  0  0  0
    2.4015   -8.5694    0.0000 O   0  0  0  0  0  0  0  0  0  0  0  0
    5.7381   -4.9293    0.0000 N   0  0  0  0  0  0  0  0  0  0  0  0
    6.3131   -5.5796    0.0000 C   0  0  0  0  0  0  0  0  0  0  0  0
    5.9371   -6.2942    0.0000 C   0  0  0  0  0  0  0  0  0  0  0  0
    5.1062   -6.0920    0.0000 S   0  0  0  0  0  0  0  0  0  0  0  0
    2.9139   -4.8968    0.0000 C   0  0  0  0  0  0  0  0  0  0  0  0
    2.2331   -5.2648    0.0000 C   0  0  0  0  0  0  0  0  0  0  0  0
    2.9101   -4.0447    0.0000 C   0  0  0  0  0  0  0  0  0  0  0  0
    2.2915   -3.6573    0.0000 C   0  0  0  0  0  0  0  0  0  0  0  0
    1.5167   -4.0192    0.0000 O   0  0  0  0  0  0  0  0  0  0  0  0
    2.1992   -2.7806    0.0000 O   0  0  0  0  0  0  0  0  0  0  0  0
    3.6332   -3.6375    0.0000 C   0  0  1  0  0  0  0  0  0  0  0  0
    3.6233   -2.8320    0.0000 C   0  0  0  0  0  0  0  0  0  0  0  0
    2.9151   -2.4197    0.0000 C   0  0  0  0  0  0  0  0  0  0  0  0
    2.9174   -1.5784    0.0000 C   0  0  0  0  0  0  0  0  0  0  0  0
    3.5895   -0.3033    0.0000 F   0  0  0  0  0  0  0  0  0  0  0  0
    3.6291   -1.1559    0.0000 C   0  0  0  0  0  0  0  0  0  0  0  0
    4.3409   -1.5933    0.0000 C   0  0  0  0  0  0  0  0  0  0  0  0
    4.3415   -2.4261    0.0000 C   0  0  0  0  0  0  0  0  0  0  0  0
    5.1484   -2.7932    0.0000 Cl  0  0  0  0  0  0  0  0  0  0  0  0
    4.2973   -4.0192    0.0000 N   0  0  0  0  0  0  0  0  0  0  0  0
    3.5895   -5.5360    0.0000 N   0  0  0  0  0  0  0  0  0  0  0  0
    4.3333   -4.9054    0.0000 C   0  0  0  0  0  0  0  0  0  0  0  0
    5.0497   -5.2753    0.0000 C   0  0  0  0  0  0  0  0  0  0  0  0
    0.8565   -3.6515    0.0000 C   0  0  0  0  0  0  0  0  0  0  0  0
    0.1490   -4.0436    0.0000 C   0  0  0  0  0  0  0  0  0  0  0  0
  1  2  1  0  0  0  0
  4  1  1  0  0  0  0
  2  3  1  0  0  0  0
  3  6  1  0  0  0  0
  3 15  1  0  0  0  0
  4  9  1  1  0  0  0
  5  6  1  0  0  0  0
  5  7  1  0  0  0  0
  4  5  1  0  0  0  0
  8  5  1  0  0  0  0
 10 11  1  0  0  0  0
 12 11  2  0  0  0  0
 13 12  1  0  0  0  0
 13 32  1  0  0  0  0
 14 15  1  0  0  0  0
 14 30  1  0  0  0  0
 16 14  2  0  0  0  0
 17 16  1  0  0  0  0
 17 18  1  0  0  0  0
 19 17  2  0  0  0  0
 20 21  1  1  0  0  0
 20 29  1  0  0  0  0
 20 16  1  0  0  0  0
 21 27  2  0  0  0  0
 22 21  1  0  0  0  0
 22 23  2  0  0  0  0
 23 25  1  0  0  0  0
 24 25  1  0  0  0  0
 25 26  2  0  0  0  0
 27 26  1  0  0  0  0
 27 28  1  0  0  0  0
 29 31  2  0  0  0  0
 31 32  1  0  0  0  0
 31 30  1  0  0  0  0
 32 10  2  0  0  0  0
 33 18  1  0  0  0  0
 34 33  1  0  0  0  0
M  END
> <ID>
SCHEMBL21146825

> <InChIKey>
FCEQQKHPCBZJEA-FUHWJXTLSA-N

> <MW>
514.95

> <Series_Name>
Series_9

$$$$
SCHEMBL21146870
  Mrv1719007181913012D 0   0.00000     0.00000     0

 33 36  0  0  1  0              1 V2000 
    1.6524   -6.7006    0.0000 C   0  0  0  0  0  0  0  0  0  0  0  0
    2.2661   -6.1471    0.0000 N   0  0  0  0  0  0  0  0  0  0  0  0
    1.8940   -7.4786    0.0000 C   0  0  0  0  0  0  0  0  0  0  0  0
    2.7339   -7.4661    0.0000 C   0  0  0  0  0  0  0  0  0  0  0  0
    2.9685   -6.6811    0.0000 C   0  0  0  0  0  0  0  0  0  0  0  0
    3.4642   -7.2411    0.0000 F   0  0  0  0  0  0  0  0  0  0  0  0
    3.1517   -8.1007    0.0000 F   0  0  0  0  0  0  0  0  0  0  0  0
    1.1461   -8.1267    0.0000 O   0  0  0  0  0  0  0  0  0  0  0  0
    5.2094   -6.1471    0.0000 S   0  0  0  0  0  0  0  0  0  0  0  0
    6.0025   -6.3398    0.0000 C   0  0  0  0  0  0  0  0  0  0  0  0
    6.4483   -5.5958    0.0000 C   0  0  0  0  0  0  0  0  0  0  0  0
    5.8606   -4.9750    0.0000 N   0  0  0  0  0  0  0  0  0  0  0  0
    2.3010   -5.3472    0.0000 C   0  0  0  0  0  0  0  0  0  0  0  0
    3.0020   -4.9399    0.0000 C   0  0  0  0  0  0  0  0  0  0  0  0
    3.0071   -4.0738    0.0000 C   0  0  0  0  0  0  0  0  0  0  0  0
    2.2542   -3.6938    0.0000 C   0  0  0  0  0  0  0  0  0  0  0  0
    1.5628   -4.0894    0.0000 O   0  0  0  0  0  0  0  0  0  0  0  0
    2.2661   -2.8131    0.0000 O   0  0  0  0  0  0  0  0  0  0  0  0
    3.7009   -3.6486    0.0000 C   0  0  1  0  0  0  0  0  0  0  0  0
    4.4020   -4.0633    0.0000 N   0  0  0  0  0  0  0  0  0  0  0  0
    3.6726   -5.5871    0.0000 N   0  0  0  0  0  0  0  0  0  0  0  0
    4.4323   -4.9454    0.0000 C   0  0  0  0  0  0  0  0  0  0  0  0
    5.1516   -5.3495    0.0000 C   0  0  0  0  0  0  0  0  0  0  0  0
    0.1363   -4.1545    0.0000 C   0  0  0  0  0  0  0  0  0  0  0  0
    0.8486   -3.6875    0.0000 C   0  0  0  0  0  0  0  0  0  0  0  0
    3.0036   -2.4189    0.0000 C   0  0  0  0  0  0  0  0  0  0  0  0
    3.0057   -1.5990    0.0000 C   0  0  0  0  0  0  0  0  0  0  0  0
    3.6726   -0.3126    0.0000 F   0  0  0  0  0  0  0  0  0  0  0  0
    3.7137   -1.1912    0.0000 C   0  0  0  0  0  0  0  0  0  0  0  0
    4.4378   -1.6076    0.0000 C   0  0  0  0  0  0  0  0  0  0  0  0
    4.4377   -2.4119    0.0000 C   0  0  0  0  0  0  0  0  0  0  0  0
    5.2528   -2.8261    0.0000 Cl  0  0  0  0  0  0  0  0  0  0  0  0
    3.7045   -2.8680    0.0000 C   0  0  0  0  0  0  0  0  0  0  0  0
  1  2  1  0  0  0  0
  1  3  1  0  0  0  0
  2  5  1  0  0  0  0
  2 13  1  0  0  0  0
  3  4  1  0  0  0  0
  4  7  1  0  0  0  0
  5  4  1  0  0  0  0
  6  4  1  0  0  0  0
  8  3  1  0  0  0  0
  9 10  1  0  0  0  0
  9 23  1  0  0  0  0
 10 11  2  0  0  0  0
 12 11  1  0  0  0  0
 13 14  1  0  0  0  0
 14 15  2  0  0  0  0
 15 16  1  0  0  0  0
 19 15  1  0  0  0  0
 16 18  2  0  0  0  0
 17 16  1  0  0  0  0
 17 25  1  0  0  0  0
 19 20  1  0  0  0  0
 19 33  1  6  0  0  0
 20 22  2  0  0  0  0
 21 14  1  0  0  0  0
 22 23  1  0  0  0  0
 22 21  1  0  0  0  0
 23 12  2  0  0  0  0
 24 25  1  0  0  0  0
 26 27  2  0  0  0  0
 26 33  1  0  0  0  0
 27 29  1  0  0  0  0
 28 29  1  0  0  0  0
 29 30  2  0  0  0  0
 31 30  1  0  0  0  0
 31 32  1  0  0  0  0
 33 31  2  0  0  0  0
M  END
> <ID>
SCHEMBL21146870

> <InChIKey>
XJFHFXKFVZHFJP-LWKPJOBUSA-N

> <MW>
500.92

> <Series_Name>
Series_4

$$$$
SCHEMBL21146871
  Mrv1719007181913012D 0   0.00000     0.00000     0

 33 36  0  0  1  0              1 V2000 
    1.8767   -7.3911    0.0000 C   0  0  0  0  0  0  0  0  0  0  0  0
    1.6085   -6.6248    0.0000 C   0  0  0  0  0  0  0  0  0  0  0  0
    2.2497   -6.0741    0.0000 N   0  0  0  0  0  0  0  0  0  0  0  0
    2.6843   -7.3935    0.0000 C   0  0  0  0  0  0  0  0  0  0  0  0
    2.9160   -6.6395    0.0000 C   0  0  0  0  0  0  0  0  0  0  0  0
    3.4495   -7.1490    0.0000 F   0  0  0  0  0  0  0  0  0  0  0  0
    3.1246   -8.0489    0.0000 F   0  0  0  0  0  0  0  0  0  0  0  0
    1.1498   -8.0489    0.0000 O   0  0  0  0  0  0  0  0  0  0  0  0
    6.0068   -6.2776    0.0000 C   0  0  0  0  0  0  0  0  0  0  0  0
    6.4168   -5.5571    0.0000 C   0  0  0  0  0  0  0  0  0  0  0  0
    5.8492   -4.9493    0.0000 N   0  0  0  0  0  0  0  0  0  0  0  0
    5.1743   -6.0741    0.0000 S   0  0  0  0  0  0  0  0  0  0  0  0
    2.9868   -4.8942    0.0000 C   0  0  0  0  0  0  0  0  0  0  0  0
    2.2566   -5.2814    0.0000 C   0  0  0  0  0  0  0  0  0  0  0  0
    2.3363   -3.6687    0.0000 C   0  0  0  0  0  0  0  0  0  0  0  0
    2.9837   -4.0377    0.0000 C   0  0  0  0  0  0  0  0  0  0  0  0
    1.5498   -4.0244    0.0000 O   0  0  0  0  0  0  0  0  0  0  0  0
    2.2497   -2.7746    0.0000 O   0  0  0  0  0  0  0  0  0  0  0  0
    3.7008   -3.5920    0.0000 C   0  0  1  0  0  0  0  0  0  0  0  0
    4.3994   -4.0244    0.0000 N   0  0  0  0  0  0  0  0  0  0  0  0
    3.6995   -5.5367    0.0000 N   0  0  0  0  0  0  0  0  0  0  0  0
    4.4133   -4.8962    0.0000 C   0  0  0  0  0  0  0  0  0  0  0  0
    5.1358   -5.2944    0.0000 C   0  0  0  0  0  0  0  0  0  0  0  0
    0.8426   -3.6635    0.0000 C   0  0  0  0  0  0  0  0  0  0  0  0
    0.1472   -4.0239    0.0000 C   0  0  0  0  0  0  0  0  0  0  0  0
    2.9800   -1.5863    0.0000 C   0  0  0  0  0  0  0  0  0  0  0  0
    2.9902   -2.4066    0.0000 C   0  0  0  0  0  0  0  0  0  0  0  0
    3.7103   -1.1415    0.0000 C   0  0  0  0  0  0  0  0  0  0  0  0
    3.6995   -0.3250    0.0000 F   0  0  0  0  0  0  0  0  0  0  0  0
    4.4081   -1.5866    0.0000 C   0  0  0  0  0  0  0  0  0  0  0  0
    4.4112   -2.3923    0.0000 C   0  0  0  0  0  0  0  0  0  0  0  0
    5.2413   -2.8152    0.0000 Br  0  0  0  0  0  0  0  0  0  0  0  0
    3.6839   -2.8558    0.0000 C   0  0  0  0  0  0  0  0  0  0  0  0
  1  2  1  0  0  0  0
  1  8  1  0  0  0  0
  2  3  1  0  0  0  0
  3  5  1  0  0  0  0
  3 14  1  0  0  0  0
  4  5  1  0  0  0  0
  4  6  1  0  0  0  0
  4  1  1  0  0  0  0
  7  4  1  0  0  0  0
  9 10  2  0  0  0  0
 11 10  1  0  0  0  0
 12  9  1  0  0  0  0
 12 23  1  0  0  0  0
 13 14  1  0  0  0  0
 13 21  1  0  0  0  0
 15 16  1  0  0  0  0
 15 17  1  0  0  0  0
 16 13  2  0  0  0  0
 18 15  2  0  0  0  0
 19 16  1  0  0  0  0
 19 20  1  0  0  0  0
 19 33  1  6  0  0  0
 20 22  2  0  0  0  0
 22 21  1  0  0  0  0
 22 23  1  0  0  0  0
 23 11  2  0  0  0  0
 24 17  1  0  0  0  0
 25 24  1  0  0  0  0
 26 27  2  0  0  0  0
 26 28  1  0  0  0  0
 27 33  1  0  0  0  0
 28 30  2  0  0  0  0
 29 28  1  0  0  0  0
 31 32  1  0  0  0  0
 31 30  1  0  0  0  0
 33 31  2  0  0  0  0
M  END
> <ID>
SCHEMBL21146871

> <InChIKey>
IWPNPPRYAJPORB-LWKPJOBUSA-N

> <MW>
545.38

> <Series_Name>
Series_4

$$$$
SCHEMBL21146873
  Mrv1719007181913012D 0   0.00000     0.00000     0

 36 39  0  0  1  0              1 V2000 
    0.5240   -8.5059    0.0000 O   0  0  0  0  0  0  0  0  0  0  0  0
    1.6714   -8.5586    0.0000 C   0  0  0  0  0  0  0  0  0  0  0  0
    2.0454   -7.9508    0.0000 C   0  0  0  0  0  0  0  0  0  0  0  0
    2.8511   -8.0273    0.0000 C   0  0  0  0  0  0  0  0  0  0  0  0
    3.4087   -7.3800    0.0000 C   0  0  0  0  0  0  0  0  0  0  0  0
    3.1598   -6.5815    0.0000 C   0  0  0  0  0  0  0  0  0  0  0  0
    3.7598   -6.0711    0.0000 N   0  0  0  0  0  0  0  0  0  0  0  0
    4.4637   -6.5774    0.0000 C   0  0  0  0  0  0  0  0  0  0  0  0
    4.2265   -7.3795    0.0000 C   0  0  0  0  0  0  0  0  0  0  0  0
    4.6536   -8.0128    0.0000 F   0  0  0  0  0  0  0  0  0  0  0  0
    1.9108   -9.3688    0.0000 O   0  0  0  0  0  0  0  0  0  0  0  0
    7.3655   -4.9309    0.0000 N   0  0  0  0  0  0  0  0  0  0  0  0
    7.9414   -5.5643    0.0000 C   0  0  0  0  0  0  0  0  0  0  0  0
    7.5101   -6.2869    0.0000 C   0  0  0  0  0  0  0  0  0  0  0  0
    6.6876   -6.0711    0.0000 S   0  0  0  0  0  0  0  0  0  0  0  0
    3.7992   -5.2480    0.0000 C   0  0  0  0  0  0  0  0  0  0  0  0
    4.5095   -4.8595    0.0000 C   0  0  0  0  0  0  0  0  0  0  0  0
    4.5113   -4.0472    0.0000 C   0  0  0  0  0  0  0  0  0  0  0  0
    3.7761   -3.6787    0.0000 C   0  0  0  0  0  0  0  0  0  0  0  0
    3.0510   -4.0372    0.0000 O   0  0  0  0  0  0  0  0  0  0  0  0
    3.7907   -2.8045    0.0000 O   0  0  0  0  0  0  0  0  0  0  0  0
    5.2111   -3.5653    0.0000 C   0  0  1  0  0  0  0  0  0  0  0  0
    5.8863   -4.0372    0.0000 N   0  0  0  0  0  0  0  0  0  0  0  0
    5.1775   -5.5319    0.0000 N   0  0  0  0  0  0  0  0  0  0  0  0
    5.9355   -4.8630    0.0000 C   0  0  0  0  0  0  0  0  0  0  0  0
    6.6717   -5.2585    0.0000 C   0  0  0  0  0  0  0  0  0  0  0  0
    2.3561   -3.6498    0.0000 C   0  0  0  0  0  0  0  0  0  0  0  0
    1.6627   -4.0369    0.0000 C   0  0  0  0  0  0  0  0  0  0  0  0
    4.5075   -1.5497    0.0000 C   0  0  0  0  0  0  0  0  0  0  0  0
    4.5076   -2.3945    0.0000 C   0  0  0  0  0  0  0  0  0  0  0  0
    5.2198   -1.1605    0.0000 C   0  0  0  0  0  0  0  0  0  0  0  0
    5.1775   -0.3390    0.0000 F   0  0  0  0  0  0  0  0  0  0  0  0
    5.9380   -1.5487    0.0000 C   0  0  0  0  0  0  0  0  0  0  0  0
    5.9376   -2.3938    0.0000 C   0  0  0  0  0  0  0  0  0  0  0  0
    6.7541   -2.8121    0.0000 Cl  0  0  0  0  0  0  0  0  0  0  0  0
    5.2160   -2.8173    0.0000 C   0  0  0  0  0  0  0  0  0  0  0  0
  1  2  1  0  0  0  0
  2 11  2  0  0  0  0
  3  2  1  0  0  0  0
  3  4  2  0  0  0  0
  4  5  1  0  0  0  0
  6  7  1  0  0  0  0
  6  5  1  0  0  0  0
  7  8  1  0  0  0  0
  7 16  1  0  0  0  0
  8  9  1  0  0  0  0
  9 10  1  0  0  0  0
  9  5  1  0  0  0  0
 12 13  1  0  0  0  0
 14 13  2  0  0  0  0
 15 14  1  0  0  0  0
 15 26  1  0  0  0  0
 16 17  1  0  0  0  0
 17 18  2  0  0  0  0
 18 19  1  0  0  0  0
 22 18  1  0  0  0  0
 19 21  2  0  0  0  0
 20 19  1  0  0  0  0
 22 23  1  0  0  0  0
 22 36  1  6  0  0  0
 23 25  2  0  0  0  0
 24 17  1  0  0  0  0
 25 26  1  0  0  0  0
 25 24  1  0  0  0  0
 26 12  2  0  0  0  0
 27 20  1  0  0  0  0
 28 27  1  0  0  0  0
 29 30  2  0  0  0  0
 29 31  1  0  0  0  0
 30 36  1  0  0  0  0
 31 33  2  0  0  0  0
 32 31  1  0  0  0  0
 34 33  1  0  0  0  0
 34 35  1  0  0  0  0
 36 34  2  0  0  0  0
M  END
> <ID>
SCHEMBL21146873

> <InChIKey>
MCEYZBQWTYPTBU-QKAOXNLBSA-N

> <MW>
536.98

> <Series_Name>
Series_4

$$$$
SCHEMBL21146874
  Mrv1719007181913012D 0   0.00000     0.00000     0

 37 40  0  0  1  0              1 V2000 
    0.4935   -8.2434    0.0000 O   0  0  0  0  0  0  0  0  0  0  0  0
    1.5113   -8.4742    0.0000 C   0  0  0  0  0  0  0  0  0  0  0  0
    2.8812   -8.1100    0.0000 O   0  0  0  0  0  0  0  0  0  0  0  0
    2.1244   -7.9414    0.0000 C   0  0  0  0  0  0  0  0  0  0  0  0
    3.3860   -7.4291    0.0000 C   0  0  0  0  0  0  0  0  0  0  0  0
    3.1426   -6.6626    0.0000 C   0  0  0  0  0  0  0  0  0  0  0  0
    3.7349   -6.1092    0.0000 N   0  0  0  0  0  0  0  0  0  0  0  0
    4.3027   -7.4125    0.0000 C   0  0  0  0  0  0  0  0  0  0  0  0
    4.4460   -6.6667    0.0000 C   0  0  0  0  0  0  0  0  0  0  0  0
    4.9621   -7.2031    0.0000 F   0  0  0  0  0  0  0  0  0  0  0  0
    7.3364   -4.9621    0.0000 N   0  0  0  0  0  0  0  0  0  0  0  0
    7.9447   -5.6035    0.0000 C   0  0  0  0  0  0  0  0  0  0  0  0
    7.4876   -6.3336    0.0000 C   0  0  0  0  0  0  0  0  0  0  0  0
    6.6695   -6.1092    0.0000 S   0  0  0  0  0  0  0  0  0  0  0  0
    4.4899   -4.9266    0.0000 C   0  0  0  0  0  0  0  0  0  0  0  0
    3.7971   -5.3151    0.0000 C   0  0  0  0  0  0  0  0  0  0  0  0
    4.4785   -4.0555    0.0000 C   0  0  0  0  0  0  0  0  0  0  0  0
    3.8217   -3.7018    0.0000 C   0  0  0  0  0  0  0  0  0  0  0  0
    3.0680   -4.0550    0.0000 O   0  0  0  0  0  0  0  0  0  0  0  0
    3.7616   -2.8012    0.0000 O   0  0  0  0  0  0  0  0  0  0  0  0
    5.1955   -3.6382    0.0000 C   0  0  1  0  0  0  0  0  0  0  0  0
    5.8425   -4.0550    0.0000 N   0  0  0  0  0  0  0  0  0  0  0  0
    5.1488   -5.5757    0.0000 N   0  0  0  0  0  0  0  0  0  0  0  0
    5.9078   -4.9286    0.0000 C   0  0  0  0  0  0  0  0  0  0  0  0
    6.6337   -5.3332    0.0000 C   0  0  0  0  0  0  0  0  0  0  0  0
    2.4024   -3.6872    0.0000 C   0  0  0  0  0  0  0  0  0  0  0  0
    1.6673   -4.0508    0.0000 C   0  0  0  0  0  0  0  0  0  0  0  0
    4.4889   -2.4197    0.0000 C   0  0  0  0  0  0  0  0  0  0  0  0
    4.4890   -1.5850    0.0000 C   0  0  0  0  0  0  0  0  0  0  0  0
    5.2152   -1.1672    0.0000 C   0  0  0  0  0  0  0  0  0  0  0  0
    5.1755   -0.3201    0.0000 F   0  0  0  0  0  0  0  0  0  0  0  0
    5.9153   -1.5849    0.0000 C   0  0  0  0  0  0  0  0  0  0  0  0
    5.9115   -2.4172    0.0000 C   0  0  0  0  0  0  0  0  0  0  0  0
    6.7408   -2.8378    0.0000 Br  0  0  0  0  0  0  0  0  0  0  0  0
    5.1963   -2.8285    0.0000 C   0  0  0  0  0  0  0  0  0  0  0  0
    1.7074   -9.2572    0.0000 O   0  0  0  0  0  0  0  0  0  0  0  0
    4.6419   -8.0834    0.0000 F   0  0  0  0  0  0  0  0  0  0  0  0
  1  2  1  0  0  0  0
  2 36  2  0  0  0  0
  3  4  1  0  0  0  0
  3  5  1  0  0  0  0
  4  2  1  0  0  0  0
  5  6  1  0  0  0  0
  5  8  1  0  0  0  0
  6  7  1  0  0  0  0
  7 16  1  0  0  0  0
  8  9  1  0  0  0  0
  8 37  1  0  0  0  0
  9  7  1  0  0  0  0
 10  8  1  0  0  0  0
 11 12  1  0  0  0  0
 13 12  2  0  0  0  0
 14 13  1  0  0  0  0
 14 25  1  0  0  0  0
 15 16  1  0  0  0  0
 15 23  1  0  0  0  0
 17 15  2  0  0  0  0
 18 17  1  0  0  0  0
 18 19  1  0  0  0  0
 20 18  2  0  0  0  0
 21 17  1  0  0  0  0
 21 22  1  0  0  0  0
 21 35  1  6  0  0  0
 22 24  2  0  0  0  0
 24 23  1  0  0  0  0
 24 25  1  0  0  0  0
 25 11  2  0  0  0  0
 26 19  1  0  0  0  0
 27 26  1  0  0  0  0
 28 29  2  0  0  0  0
 28 35  1  0  0  0  0
 29 30  1  0  0  0  0
 30 32  2  0  0  0  0
 31 30  1  0  0  0  0
 33 32  1  0  0  0  0
 33 34  1  0  0  0  0
 35 33  2  0  0  0  0
M  END
> <ID>
SCHEMBL21146874

> <InChIKey>
DNWKCBUMGCRWMR-CVMIBEPCSA-N

> <MW>
603.41

> <Series_Name>
Series_4

$$$$
SCHEMBL21146892
  Mrv1719007181913052D 0   0.00000     0.00000     0

 36 39  0  0  1  0              1 V2000 
    0.5069   -8.5597    0.0000 O   0  0  0  0  0  0  0  0  0  0  0  0
    1.4724   -8.6433    0.0000 C   0  0  0  0  0  0  0  0  0  0  0  0
    2.0205   -7.9641    0.0000 C   0  0  0  0  0  0  0  0  0  0  0  0
    2.8011   -8.0292    0.0000 C   0  0  0  0  0  0  0  0  0  0  0  0
    3.0551   -6.5624    0.0000 C   0  0  0  0  0  0  0  0  0  0  0  0
    3.6322   -6.0820    0.0000 N   0  0  0  0  0  0  0  0  0  0  0  0
    3.2894   -7.3486    0.0000 C   0  0  0  0  0  0  0  0  0  0  0  0
    4.0905   -7.3528    0.0000 C   0  0  0  0  0  0  0  0  0  0  0  0
    4.3269   -6.5689    0.0000 C   0  0  0  0  0  0  0  0  0  0  0  0
    4.5333   -8.0530    0.0000 F   0  0  0  0  0  0  0  0  0  0  0  0
    1.8583   -9.3764    0.0000 O   0  0  0  0  0  0  0  0  0  0  0  0
    7.1800   -4.9557    0.0000 N   0  0  0  0  0  0  0  0  0  0  0  0
    7.7758   -5.5472    0.0000 C   0  0  0  0  0  0  0  0  0  0  0  0
    7.3580   -6.2896    0.0000 C   0  0  0  0  0  0  0  0  0  0  0  0
    6.5325   -6.0820    0.0000 S   0  0  0  0  0  0  0  0  0  0  0  0
    3.6679   -5.2988    0.0000 C   0  0  0  0  0  0  0  0  0  0  0  0
    4.3711   -4.8904    0.0000 C   0  0  0  0  0  0  0  0  0  0  0  0
    4.3736   -4.0351    0.0000 C   0  0  0  0  0  0  0  0  0  0  0  0
    3.7475   -3.6952    0.0000 C   0  0  0  0  0  0  0  0  0  0  0  0
    2.9846   -4.0547    0.0000 O   0  0  0  0  0  0  0  0  0  0  0  0
    3.6886   -2.8157    0.0000 O   0  0  0  0  0  0  0  0  0  0  0  0
    5.0619   -3.5419    0.0000 C   0  0  1  0  0  0  0  0  0  0  0  0
    5.7441   -4.0547    0.0000 N   0  0  0  0  0  0  0  0  0  0  0  0
    5.0120   -5.5470    0.0000 N   0  0  0  0  0  0  0  0  0  0  0  0
    5.7862   -4.8970    0.0000 C   0  0  0  0  0  0  0  0  0  0  0  0
    6.5188   -5.3092    0.0000 C   0  0  0  0  0  0  0  0  0  0  0  0
    2.3085   -3.6666    0.0000 C   0  0  0  0  0  0  0  0  0  0  0  0
    1.6295   -4.0259    0.0000 C   0  0  0  0  0  0  0  0  0  0  0  0
    4.3736   -2.4123    0.0000 C   0  0  0  0  0  0  0  0  0  0  0  0
    4.3757   -1.5873    0.0000 C   0  0  0  0  0  0  0  0  0  0  0  0
    5.0401   -0.3379    0.0000 F   0  0  0  0  0  0  0  0  0  0  0  0
    5.0874   -1.1876    0.0000 C   0  0  0  0  0  0  0  0  0  0  0  0
    5.7931   -1.5856    0.0000 C   0  0  0  0  0  0  0  0  0  0  0  0
    5.7881   -2.4123    0.0000 C   0  0  0  0  0  0  0  0  0  0  0  0
    6.5936   -2.8404    0.0000 Br  0  0  0  0  0  0  0  0  0  0  0  0
    5.0575   -2.8518    0.0000 C   0  0  0  0  0  0  0  0  0  0  0  0
  1  2  1  0  0  0  0
  2 11  2  0  0  0  0
  3  2  1  0  0  0  0
  3  4  2  0  0  0  0
  4  7  1  0  0  0  0
  5  6  1  0  0  0  0
  5  7  1  0  0  0  0
  6  9  1  0  0  0  0
  6 16  1  0  0  0  0
  7  8  1  0  0  0  0
  8  9  1  0  0  0  0
  8 10  1  0  0  0  0
 12 13  1  0  0  0  0
 14 13  2  0  0  0  0
 15 14  1  0  0  0  0
 15 26  1  0  0  0  0
 16 17  1  0  0  0  0
 17 18  2  0  0  0  0
 22 18  1  0  0  0  0
 19 18  1  0  0  0  0
 19 20  1  0  0  0  0
 21 19  2  0  0  0  0
 22 23  1  0  0  0  0
 22 36  1  6  0  0  0
 23 25  2  0  0  0  0
 24 17  1  0  0  0  0
 25 26  1  0  0  0  0
 25 24  1  0  0  0  0
 26 12  2  0  0  0  0
 27 20  1  0  0  0  0
 28 27  1  0  0  0  0
 29 30  2  0  0  0  0
 29 36  1  0  0  0  0
 30 32  1  0  0  0  0
 31 32  1  0  0  0  0
 32 33  2  0  0  0  0
 34 33  1  0  0  0  0
 34 35  1  0  0  0  0
 36 34  2  0  0  0  0
M  END
> <ID>
SCHEMBL21146892

> <InChIKey>
CWQXHZDQTAMFQO-QKAOXNLBSA-N

> <MW>
581.43

> <Series_Name>
Series_4

$$$$
SCHEMBL21146893
  Mrv1719007181913052D 0   0.00000     0.00000     0

 37 40  0  0  1  0              1 V2000 
    0.4837   -8.7065    0.0000 O   0  0  0  0  0  0  0  0  0  0  0  0
    1.5613   -8.7803    0.0000 C   0  0  0  0  0  0  0  0  0  0  0  0
    2.8453   -8.2188    0.0000 C   0  0  0  0  0  0  0  0  0  0  0  0
    3.3055   -7.5569    0.0000 C   0  0  0  0  0  0  0  0  0  0  0  0
    3.0819   -6.7211    0.0000 C   0  0  0  0  0  0  0  0  0  0  0  0
    3.7037   -6.2189    0.0000 N   0  0  0  0  0  0  0  0  0  0  0  0
    4.1619   -7.5629    0.0000 C   0  0  0  0  0  0  0  0  0  0  0  0
    4.3812   -6.7475    0.0000 C   0  0  0  0  0  0  0  0  0  0  0  0
    4.9199   -7.5180    0.0000 F   0  0  0  0  0  0  0  0  0  0  0  0
    4.5881   -8.1813    0.0000 F   0  0  0  0  0  0  0  0  0  0  0  0
    2.0272   -8.1646    0.0000 C   0  0  0  0  0  0  0  0  0  0  0  0
    7.2969   -5.0581    0.0000 N   0  0  0  0  0  0  0  0  0  0  0  0
    7.8712   -5.6836    0.0000 C   0  0  0  0  0  0  0  0  0  0  0  0
    7.4718   -6.3951    0.0000 C   0  0  0  0  0  0  0  0  0  0  0  0
    6.6058   -6.2189    0.0000 S   0  0  0  0  0  0  0  0  0  0  0  0
    3.7130   -5.3976    0.0000 C   0  0  0  0  0  0  0  0  0  0  0  0
    4.4262   -4.9971    0.0000 C   0  0  0  0  0  0  0  0  0  0  0  0
    4.4330   -4.1353    0.0000 C   0  0  0  0  0  0  0  0  0  0  0  0
    3.7790   -3.7545    0.0000 C   0  0  0  0  0  0  0  0  0  0  0  0
    3.0127   -4.1183    0.0000 O   0  0  0  0  0  0  0  0  0  0  0  0
    3.7037   -2.8469    0.0000 O   0  0  0  0  0  0  0  0  0  0  0  0
    5.1113   -3.6735    0.0000 C   0  0  1  0  0  0  0  0  0  0  0  0
    5.8043   -4.0907    0.0000 N   0  0  0  0  0  0  0  0  0  0  0  0
    5.1134   -5.6661    0.0000 N   0  0  0  0  0  0  0  0  0  0  0  0
    5.8712   -4.9970    0.0000 C   0  0  0  0  0  0  0  0  0  0  0  0
    6.5890   -5.4037    0.0000 C   0  0  0  0  0  0  0  0  0  0  0  0
    2.2915   -3.7454    0.0000 C   0  0  0  0  0  0  0  0  0  0  0  0
    1.5754   -4.1643    0.0000 C   0  0  0  0  0  0  0  0  0  0  0  0
    4.4321   -1.5850    0.0000 C   0  0  0  0  0  0  0  0  0  0  0  0
    4.4396   -2.4687    0.0000 C   0  0  0  0  0  0  0  0  0  0  0  0
    5.1134   -0.3316    0.0000 F   0  0  0  0  0  0  0  0  0  0  0  0
    5.1279   -1.1815    0.0000 C   0  0  0  0  0  0  0  0  0  0  0  0
    5.8690   -1.5969    0.0000 C   0  0  0  0  0  0  0  0  0  0  0  0
    5.8718   -2.4611    0.0000 C   0  0  0  0  0  0  0  0  0  0  0  0
    6.6935   -2.8849    0.0000 Br  0  0  0  0  0  0  0  0  0  0  0  0
    5.1191   -2.8821    0.0000 C   0  0  0  0  0  0  0  0  0  0  0  0
    1.8519   -9.5633    0.0000 O   0  0  0  0  0  0  0  0  0  0  0  0
  2  1  1  0  0  0  0
  2 37  2  0  0  0  0
  3  4  1  0  0  0  0
  5  6  1  0  0  0  0
  5  4  1  0  0  0  0
  6 16  1  0  0  0  0
  7  8  1  0  0  0  0
  7  9  1  0  0  0  0
  7  4  1  0  0  0  0
  8  6  1  0  0  0  0
 10  7  1  0  0  0  0
 11  3  2  0  0  0  0
 11  2  1  0  0  0  0
 12 13  1  0  0  0  0
 14 13  2  0  0  0  0
 15 14  1  0  0  0  0
 15 26  1  0  0  0  0
 16 17  1  0  0  0  0
 17 18  2  0  0  0  0
 18 19  1  0  0  0  0
 22 18  1  0  0  0  0
 19 20  1  0  0  0  0
 21 19  2  0  0  0  0
 22 23  1  0  0  0  0
 22 36  1  6  0  0  0
 23 25  2  0  0  0  0
 24 17  1  0  0  0  0
 25 26  1  0  0  0  0
 25 24  1  0  0  0  0
 26 12  2  0  0  0  0
 27 20  1  0  0  0  0
 27 28  1  0  0  0  0
 29 30  2  0  0  0  0
 29 32  1  0  0  0  0
 30 36  1  0  0  0  0
 31 32  1  0  0  0  0
 32 33  2  0  0  0  0
 34 33  1  0  0  0  0
 34 35  1  0  0  0  0
 36 34  2  0  0  0  0
M  END
> <ID>
SCHEMBL21146893

> <InChIKey>
SDWBSVDVUQMEOZ-RJDASXTJSA-N

> <MW>
599.42

> <Series_Name>
Series_4

$$$$
SCHEMBL21146894
  Mrv1719007181913052D 0   0.00000     0.00000     0

 36 39  0  0  1  0              1 V2000 
    0.4941   -8.7611    0.0000 O   0  0  0  0  0  0  0  0  0  0  0  0
    1.6418   -8.8452    0.0000 C   0  0  0  0  0  0  0  0  0  0  0  0
    2.0453   -8.2104    0.0000 C   0  0  0  0  0  0  0  0  0  0  0  0
    2.8326   -8.2671    0.0000 O   0  0  0  0  0  0  0  0  0  0  0  0
    1.8445   -9.6504    0.0000 O   0  0  0  0  0  0  0  0  0  0  0  0
    3.1362   -6.8006    0.0000 C   0  0  0  0  0  0  0  0  0  0  0  0
    3.7219   -6.2579    0.0000 N   0  0  0  0  0  0  0  0  0  0  0  0
    3.3883   -7.5775    0.0000 C   0  0  0  0  0  0  0  0  0  0  0  0
    4.2072   -7.5953    0.0000 C   0  0  0  0  0  0  0  0  0  0  0  0
    4.4659   -6.8207    0.0000 C   0  0  0  0  0  0  0  0  0  0  0  0
    4.6111   -8.2671    0.0000 F   0  0  0  0  0  0  0  0  0  0  0  0
    7.3120   -5.0723    0.0000 N   0  0  0  0  0  0  0  0  0  0  0  0
    7.9315   -5.7357    0.0000 C   0  0  0  0  0  0  0  0  0  0  0  0
    7.5222   -6.4312    0.0000 C   0  0  0  0  0  0  0  0  0  0  0  0
    6.6862   -6.2579    0.0000 S   0  0  0  0  0  0  0  0  0  0  0  0
    3.7815   -5.4234    0.0000 C   0  0  0  0  0  0  0  0  0  0  0  0
    4.4886   -5.0291    0.0000 C   0  0  0  0  0  0  0  0  0  0  0  0
    4.4917   -4.1610    0.0000 C   0  0  0  0  0  0  0  0  0  0  0  0
    3.9030   -3.8272    0.0000 C   0  0  0  0  0  0  0  0  0  0  0  0
    2.9972   -4.1501    0.0000 O   0  0  0  0  0  0  0  0  0  0  0  0
    3.7219   -2.8655    0.0000 O   0  0  0  0  0  0  0  0  0  0  0  0
    5.2077   -3.6563    0.0000 C   0  0  1  0  0  0  0  0  0  0  0  0
    5.8627   -4.1501    0.0000 N   0  0  0  0  0  0  0  0  0  0  0  0
    5.1381   -5.6981    0.0000 N   0  0  0  0  0  0  0  0  0  0  0  0
    5.9062   -5.0415    0.0000 C   0  0  0  0  0  0  0  0  0  0  0  0
    6.6631   -5.4170    0.0000 C   0  0  0  0  0  0  0  0  0  0  0  0
    2.3524   -3.7683    0.0000 C   0  0  0  0  0  0  0  0  0  0  0  0
    1.6781   -4.1489    0.0000 C   0  0  0  0  0  0  0  0  0  0  0  0
    4.4898   -2.4608    0.0000 C   0  0  0  0  0  0  0  0  0  0  0  0
    4.4899   -1.5887    0.0000 C   0  0  0  0  0  0  0  0  0  0  0  0
    5.2243   -1.2128    0.0000 C   0  0  0  0  0  0  0  0  0  0  0  0
    5.1381   -0.3294    0.0000 F   0  0  0  0  0  0  0  0  0  0  0  0
    5.9145   -1.5906    0.0000 C   0  0  0  0  0  0  0  0  0  0  0  0
    5.9098   -2.4657    0.0000 C   0  0  0  0  0  0  0  0  0  0  0  0
    6.7242   -2.8737    0.0000 Cl  0  0  0  0  0  0  0  0  0  0  0  0
    5.1989   -2.9327    0.0000 C   0  0  0  0  0  0  0  0  0  0  0  0
  1  2  1  0  0  0  0
  2  5  2  0  0  0  0
  3  4  1  0  0  0  0
  3  2  1  0  0  0  0
  6  7  1  0  0  0  0
  6  8  1  0  0  0  0
  7 10  1  0  0  0  0
  7 16  1  0  0  0  0
  8  9  1  0  0  0  0
  8  4  1  0  0  0  0
 10  9  1  0  0  0  0
 11  9  1  0  0  0  0
 12 13  1  0  0  0  0
 14 13  2  0  0  0  0
 15 14  1  0  0  0  0
 15 26  1  0  0  0  0
 16 17  1  0  0  0  0
 17 18  2  0  0  0  0
 22 18  1  0  0  0  0
 19 18  1  0  0  0  0
 19 20  1  0  0  0  0
 21 19  2  0  0  0  0
 22 23  1  0  0  0  0
 22 36  1  6  0  0  0
 23 25  2  0  0  0  0
 24 17  1  0  0  0  0
 25 26  1  0  0  0  0
 25 24  1  0  0  0  0
 26 12  2  0  0  0  0
 27 20  1  0  0  0  0
 28 27  1  0  0  0  0
 29 30  2  0  0  0  0
 29 36  1  0  0  0  0
 30 31  1  0  0  0  0
 31 33  2  0  0  0  0
 32 31  1  0  0  0  0
 34 35  1  0  0  0  0
 34 33  1  0  0  0  0
 36 34  2  0  0  0  0
M  END
> <ID>
SCHEMBL21146894

> <InChIKey>
ZSFHWYMRMLNLLQ-LAGYLCCXSA-N

> <MW>
540.97

> <Series_Name>
Series_4

$$$$
SCHEMBL21146895
  Mrv1719007181913052D 0   0.00000     0.00000     0

 36 39  0  0  1  0              1 V2000 
    4.5300   -7.4411    0.0000 C   0  0  0  0  0  0  0  0  0  0  0  0
    3.7171   -7.4397    0.0000 C   0  0  0  0  0  0  0  0  0  0  0  0
    2.7147   -6.4110    0.0000 C   0  0  0  0  0  0  0  0  0  0  0  0
    3.4871   -6.6522    0.0000 C   0  0  0  0  0  0  0  0  0  0  0  0
    2.0934   -6.9798    0.0000 C   0  0  0  0  0  0  0  0  0  0  0  0
    1.3983   -6.6949    0.0000 C   0  0  0  0  0  0  0  0  0  0  0  0
    0.4912   -7.2222    0.0000 O   0  0  0  0  0  0  0  0  0  0  0  0
    1.1152   -5.8681    0.0000 O   0  0  0  0  0  0  0  0  0  0  0  0
    4.0625   -6.1336    0.0000 N   0  0  0  0  0  0  0  0  0  0  0  0
    4.7921   -6.6451    0.0000 C   0  0  0  0  0  0  0  0  0  0  0  0
    4.9919   -8.0985    0.0000 F   0  0  0  0  0  0  0  0  0  0  0  0
    7.6206   -4.9653    0.0000 N   0  0  0  0  0  0  0  0  0  0  0  0
    8.2246   -5.5996    0.0000 C   0  0  0  0  0  0  0  0  0  0  0  0
    7.7824   -6.3460    0.0000 C   0  0  0  0  0  0  0  0  0  0  0  0
    6.9833   -6.1336    0.0000 S   0  0  0  0  0  0  0  0  0  0  0  0
    4.0991   -5.3673    0.0000 C   0  0  0  0  0  0  0  0  0  0  0  0
    4.8350   -4.9345    0.0000 C   0  0  0  0  0  0  0  0  0  0  0  0
    4.8417   -4.0755    0.0000 C   0  0  0  0  0  0  0  0  0  0  0  0
    4.1557   -3.6866    0.0000 C   0  0  0  0  0  0  0  0  0  0  0  0
    3.3987   -4.0625    0.0000 O   0  0  0  0  0  0  0  0  0  0  0  0
    4.0625   -2.8146    0.0000 O   0  0  0  0  0  0  0  0  0  0  0  0
    5.5266   -3.6305    0.0000 C   0  0  1  0  0  0  0  0  0  0  0  0
    6.1867   -4.0625    0.0000 N   0  0  0  0  0  0  0  0  0  0  0  0
    5.4698   -5.5760    0.0000 N   0  0  0  0  0  0  0  0  0  0  0  0
    6.2331   -4.9310    0.0000 C   0  0  0  0  0  0  0  0  0  0  0  0
    6.9453   -5.3599    0.0000 C   0  0  0  0  0  0  0  0  0  0  0  0
    2.7283   -3.6720    0.0000 C   0  0  0  0  0  0  0  0  0  0  0  0
    1.9971   -4.1013    0.0000 C   0  0  0  0  0  0  0  0  0  0  0  0
    4.8382   -1.5996    0.0000 C   0  0  0  0  0  0  0  0  0  0  0  0
    4.8491   -2.4519    0.0000 C   0  0  0  0  0  0  0  0  0  0  0  0
    5.5326   -1.1581    0.0000 C   0  0  0  0  0  0  0  0  0  0  0  0
    5.4964   -0.3186    0.0000 F   0  0  0  0  0  0  0  0  0  0  0  0
    6.2332   -1.5937    0.0000 C   0  0  0  0  0  0  0  0  0  0  0  0
    6.2303   -2.4344    0.0000 C   0  0  0  0  0  0  0  0  0  0  0  0
    7.0411   -2.8577    0.0000 Br  0  0  0  0  0  0  0  0  0  0  0  0
    5.5286   -2.8560    0.0000 C   0  0  0  0  0  0  0  0  0  0  0  0
  1  2  1  0  0  0  0
  1 10  1  0  0  0  0
  1 11  1  0  0  0  0
  3  4  1  0  0  0  0
  4  9  1  0  0  0  0
  4  2  1  0  0  0  0
  5  3  2  0  0  0  0
  6  5  1  0  0  0  0
  6  7  1  0  0  0  0
  8  6  2  0  0  0  0
  9 10  1  0  0  0  0
  9 16  1  0  0  0  0
 12 13  1  0  0  0  0
 14 13  2  0  0  0  0
 15 14  1  0  0  0  0
 15 26  1  0  0  0  0
 16 17  1  0  0  0  0
 17 18  2  0  0  0  0
 18 19  1  0  0  0  0
 22 18  1  0  0  0  0
 19 20  1  0  0  0  0
 21 19  2  0  0  0  0
 22 23  1  0  0  0  0
 22 36  1  6  0  0  0
 23 25  2  0  0  0  0
 24 17  1  0  0  0  0
 25 24  1  0  0  0  0
 25 26  1  0  0  0  0
 26 12  2  0  0  0  0
 27 20  1  0  0  0  0
 27 28  1  0  0  0  0
 29 30  2  0  0  0  0
 29 31  1  0  0  0  0
 30 36  1  0  0  0  0
 31 33  2  0  0  0  0
 32 31  1  0  0  0  0
 34 33  1  0  0  0  0
 34 35  1  0  0  0  0
 36 34  2  0  0  0  0
M  END
> <ID>
SCHEMBL21146895

> <InChIKey>
MPFQGJSGJASXAF-XBPGFDPLSA-N

> <MW>
581.43

> <Series_Name>
Series_4

$$$$
SCHEMBL21146896
  Mrv1719007181913052D 0   0.00000     0.00000     0

 32 35  0  0  1  0              1 V2000 
    1.8350   -7.4460    0.0000 C   0  0  0  0  0  0  0  0  0  0  0  0
    1.5960   -6.6636    0.0000 C   0  0  0  0  0  0  0  0  0  0  0  0
    2.1931   -6.1406    0.0000 N   0  0  0  0  0  0  0  0  0  0  0  0
    2.6253   -7.4466    0.0000 C   0  0  0  0  0  0  0  0  0  0  0  0
    2.8872   -6.6428    0.0000 C   0  0  0  0  0  0  0  0  0  0  0  0
    3.0703   -8.1014    0.0000 F   0  0  0  0  0  0  0  0  0  0  0  0
    1.1223   -8.1273    0.0000 O   0  0  0  0  0  0  0  0  0  0  0  0
    5.7020   -4.9537    0.0000 N   0  0  0  0  0  0  0  0  0  0  0  0
    6.2707   -5.6050    0.0000 C   0  0  0  0  0  0  0  0  0  0  0  0
    5.8787   -6.3232    0.0000 C   0  0  0  0  0  0  0  0  0  0  0  0
    5.0569   -6.1406    0.0000 S   0  0  0  0  0  0  0  0  0  0  0  0
    2.9316   -4.9178    0.0000 C   0  0  0  0  0  0  0  0  0  0  0  0
    2.2280   -5.3485    0.0000 C   0  0  0  0  0  0  0  0  0  0  0  0
    2.1550   -3.6796    0.0000 C   0  0  0  0  0  0  0  0  0  0  0  0
    2.9246   -4.0899    0.0000 C   0  0  0  0  0  0  0  0  0  0  0  0
    1.4964   -4.0507    0.0000 O   0  0  0  0  0  0  0  0  0  0  0  0
    2.1931   -2.8381    0.0000 O   0  0  0  0  0  0  0  0  0  0  0  0
    3.6281   -3.5761    0.0000 C   0  0  1  0  0  0  0  0  0  0  0  0
    4.2829   -4.0507    0.0000 N   0  0  0  0  0  0  0  0  0  0  0  0
    3.5863   -5.5859    0.0000 N   0  0  0  0  0  0  0  0  0  0  0  0
    4.3140   -4.9239    0.0000 C   0  0  0  0  0  0  0  0  0  0  0  0
    5.0159   -5.3615    0.0000 C   0  0  0  0  0  0  0  0  0  0  0  0
    0.8763   -3.6754    0.0000 C   0  0  0  0  0  0  0  0  0  0  0  0
    0.1537   -4.0765    0.0000 C   0  0  0  0  0  0  0  0  0  0  0  0
    2.9392   -1.5695    0.0000 C   0  0  0  0  0  0  0  0  0  0  0  0
    3.6147   -1.1817    0.0000 C   0  0  0  0  0  0  0  0  0  0  0  0
    3.5863   -0.3096    0.0000 F   0  0  0  0  0  0  0  0  0  0  0  0
    4.3153   -2.4204    0.0000 C   0  0  0  0  0  0  0  0  0  0  0  0
    4.3143   -1.5740    0.0000 C   0  0  0  0  0  0  0  0  0  0  0  0
    5.1130   -2.8446    0.0000 Cl  0  0  0  0  0  0  0  0  0  0  0  0
    2.9328   -2.4290    0.0000 C   0  0  0  0  0  0  0  0  0  0  0  0
    3.6089   -2.8377    0.0000 C   0  0  0  0  0  0  0  0  0  0  0  0
  1  2  1  0  0  0  0
  1  4  1  0  0  0  0
  1  7  1  0  0  0  0
  2  3  1  0  0  0  0
  3  5  1  0  0  0  0
  3 13  1  0  0  0  0
  5  4  1  0  0  0  0
  6  4  1  0  0  0  0
  8  9  1  0  0  0  0
 10  9  2  0  0  0  0
 11 10  1  0  0  0  0
 11 22  1  0  0  0  0
 12 13  1  0  0  0  0
 12 20  1  0  0  0  0
 14 15  1  0  0  0  0
 14 17  2  0  0  0  0
 15 12  2  0  0  0  0
 16 14  1  0  0  0  0
 18 15  1  0  0  0  0
 18 19  1  0  0  0  0
 18 32  1  6  0  0  0
 19 21  2  0  0  0  0
 21 22  1  0  0  0  0
 21 20  1  0  0  0  0
 22  8  2  0  0  0  0
 23 16  1  0  0  0  0
 24 23  1  0  0  0  0
 25 26  1  0  0  0  0
 26 29  2  0  0  0  0
 27 26  1  0  0  0  0
 28 29  1  0  0  0  0
 28 30  1  0  0  0  0
 31 32  1  0  0  0  0
 31 25  2  0  0  0  0
 32 28  2  0  0  0  0
M  END
> <ID>
SCHEMBL21146896

> <InChIKey>
FPTFHIASFFSDDP-PVARCSIZSA-N

> <MW>
482.93

> <Series_Name>
Series_4

$$$$
SCHEMBL21146897
  Mrv1719007181913052D 0   0.00000     0.00000     0

 32 35  0  0  1  0              1 V2000 
    2.2343   -6.1565    0.0000 N   0  0  0  0  0  0  0  0  0  0  0  0
    1.6037   -6.6615    0.0000 C   0  0  0  0  0  0  0  0  0  0  0  0
    1.7940   -7.5148    0.0000 C   0  0  0  0  0  0  0  0  0  0  0  0
    2.6531   -7.4610    0.0000 C   0  0  1  0  0  0  0  0  0  0  0  0
    2.8980   -6.6918    0.0000 C   0  0  0  0  0  0  0  0  0  0  0  0
    3.1031   -8.1177    0.0000 F   0  0  0  0  0  0  0  0  0  0  0  0
    5.9109   -6.3354    0.0000 C   0  0  0  0  0  0  0  0  0  0  0  0
    6.3129   -5.6133    0.0000 C   0  0  0  0  0  0  0  0  0  0  0  0
    5.7594   -4.9650    0.0000 N   0  0  0  0  0  0  0  0  0  0  0  0
    5.0891   -6.1565    0.0000 S   0  0  0  0  0  0  0  0  0  0  0  0
    2.9393   -4.9051    0.0000 C   0  0  0  0  0  0  0  0  0  0  0  0
    2.2427   -5.3454    0.0000 C   0  0  0  0  0  0  0  0  0  0  0  0
    2.9383   -4.0792    0.0000 C   0  0  0  0  0  0  0  0  0  0  0  0
    2.2915   -3.7108    0.0000 C   0  0  0  0  0  0  0  0  0  0  0  0
    1.5391   -4.0712    0.0000 O   0  0  0  0  0  0  0  0  0  0  0  0
    2.2343   -2.8052    0.0000 O   0  0  0  0  0  0  0  0  0  0  0  0
    3.6270   -3.6394    0.0000 C   0  0  1  0  0  0  0  0  0  0  0  0
    4.3195   -4.0712    0.0000 N   0  0  0  0  0  0  0  0  0  0  0  0
    3.6244   -5.5980    0.0000 N   0  0  0  0  0  0  0  0  0  0  0  0
    4.3532   -4.9039    0.0000 C   0  0  0  0  0  0  0  0  0  0  0  0
    5.0470   -5.3487    0.0000 C   0  0  0  0  0  0  0  0  0  0  0  0
    0.8294   -3.6840    0.0000 C   0  0  0  0  0  0  0  0  0  0  0  0
    0.1548   -4.0702    0.0000 C   0  0  0  0  0  0  0  0  0  0  0  0
    2.9349   -2.4253    0.0000 C   0  0  0  0  0  0  0  0  0  0  0  0
    2.9468   -1.5837    0.0000 C   0  0  0  0  0  0  0  0  0  0  0  0
    3.6244   -0.3228    0.0000 F   0  0  0  0  0  0  0  0  0  0  0  0
    3.6357   -1.1606    0.0000 C   0  0  0  0  0  0  0  0  0  0  0  0
    4.3632   -1.5901    0.0000 C   0  0  0  0  0  0  0  0  0  0  0  0
    4.3539   -2.4289    0.0000 C   0  0  0  0  0  0  0  0  0  0  0  0
    5.1679   -2.8176    0.0000 Cl  0  0  0  0  0  0  0  0  0  0  0  0
    3.6370   -2.8526    0.0000 C   0  0  0  0  0  0  0  0  0  0  0  0
    1.1420   -8.1177    0.0000 O   0  0  0  0  0  0  0  0  0  0  0  0
  1  2  1  0  0  0  0
  1  5  1  0  0  0  0
  1 12  1  0  0  0  0
  2  3  1  0  0  0  0
  4  3  1  0  0  0  0
  3 32  1  0  0  0  0
  4  6  1  1  0  0  0
  4  5  1  0  0  0  0
  7  8  2  0  0  0  0
  9  8  1  0  0  0  0
 10  7  1  0  0  0  0
 10 21  1  0  0  0  0
 11 12  1  0  0  0  0
 11 19  1  0  0  0  0
 13 11  2  0  0  0  0
 14 13  1  0  0  0  0
 14 15  1  0  0  0  0
 16 14  2  0  0  0  0
 17 13  1  0  0  0  0
 17 18  1  0  0  0  0
 17 31  1  6  0  0  0
 18 20  2  0  0  0  0
 20 21  1  0  0  0  0
 20 19  1  0  0  0  0
 21  9  2  0  0  0  0
 22 15  1  0  0  0  0
 23 22  1  0  0  0  0
 24 25  2  0  0  0  0
 24 31  1  0  0  0  0
 25 27  1  0  0  0  0
 26 27  1  0  0  0  0
 27 28  2  0  0  0  0
 29 28  1  0  0  0  0
 29 30  1  0  0  0  0
 31 29  2  0  0  0  0
M  END
> <ID>
SCHEMBL21146897

> <InChIKey>
FPTFHIASFFSDDP-ZRFIFAGDSA-N

> <MW>
482.93

> <Series_Name>
Series_4

$$$$
SCHEMBL21146899
  Mrv1719007181913052D 0   0.00000     0.00000     0

 37 40  0  0  1  0              1 V2000 
    0.5174   -7.3556    0.0000 O   0  0  0  0  0  0  0  0  0  0  0  0
    1.4089   -7.7394    0.0000 C   0  0  0  0  0  0  0  0  0  0  0  0
    2.2402   -7.3616    0.0000 C   0  0  0  0  0  0  0  0  0  0  0  0
    2.9087   -7.7471    0.0000 O   0  0  0  0  0  0  0  0  0  0  0  0
    1.4543   -8.5862    0.0000 O   0  0  0  0  0  0  0  0  0  0  0  0
    3.6242   -7.3537    0.0000 C   0  0  0  0  0  0  0  0  0  0  0  0
    3.6149   -6.5466    0.0000 C   0  0  0  0  0  0  0  0  0  0  0  0
    4.3070   -6.0691    0.0000 N   0  0  0  0  0  0  0  0  0  0  0  0
    4.3442   -7.7564    0.0000 C   0  0  0  0  0  0  0  0  0  0  0  0
    5.0489   -7.3465    0.0000 C   0  0  0  0  0  0  0  0  0  0  0  0
    5.0447   -6.5149    0.0000 C   0  0  0  0  0  0  0  0  0  0  0  0
    5.7334   -7.7471    0.0000 F   0  0  0  0  0  0  0  0  0  0  0  0
    8.5291   -5.5601    0.0000 C   0  0  0  0  0  0  0  0  0  0  0  0
    7.9149   -4.9504    0.0000 S   0  0  0  0  0  0  0  0  0  0  0  0
    8.1100   -6.2928    0.0000 C   0  0  0  0  0  0  0  0  0  0  0  0
    7.2437   -6.0691    0.0000 N   0  0  0  0  0  0  0  0  0  0  0  0
    4.3428   -5.2654    0.0000 C   0  0  0  0  0  0  0  0  0  0  0  0
    5.0435   -4.8855    0.0000 C   0  0  0  0  0  0  0  0  0  0  0  0
    5.0436   -4.0360    0.0000 C   0  0  0  0  0  0  0  0  0  0  0  0
    4.3181   -3.6724    0.0000 C   0  0  0  0  0  0  0  0  0  0  0  0
    3.6358   -4.0554    0.0000 O   0  0  0  0  0  0  0  0  0  0  0  0
    4.3350   -2.8248    0.0000 O   0  0  0  0  0  0  0  0  0  0  0  0
    5.7518   -3.5907    0.0000 C   0  0  1  0  0  0  0  0  0  0  0  0
    6.4327   -4.0274    0.0000 N   0  0  0  0  0  0  0  0  0  0  0  0
    5.7055   -5.5516    0.0000 N   0  0  0  0  0  0  0  0  0  0  0  0
    6.4758   -4.8904    0.0000 C   0  0  0  0  0  0  0  0  0  0  0  0
    7.2100   -5.2715    0.0000 C   0  0  0  0  0  0  0  0  0  0  0  0
    2.2095   -4.0467    0.0000 C   0  0  0  0  0  0  0  0  0  0  0  0
    2.9400   -3.6696    0.0000 C   0  0  0  0  0  0  0  0  0  0  0  0
    5.0405   -2.4248    0.0000 C   0  0  0  0  0  0  0  0  0  0  0  0
    5.0517   -1.5599    0.0000 C   0  0  0  0  0  0  0  0  0  0  0  0
    5.7750   -1.1672    0.0000 C   0  0  0  0  0  0  0  0  0  0  0  0
    5.7334   -0.3356    0.0000 F   0  0  0  0  0  0  0  0  0  0  0  0
    6.4624   -1.5619    0.0000 C   0  0  0  0  0  0  0  0  0  0  0  0
    6.4720   -2.4252    0.0000 C   0  0  0  0  0  0  0  0  0  0  0  0
    7.3322   -2.8318    0.0000 Cl  0  0  0  0  0  0  0  0  0  0  0  0
    5.7680   -2.8477    0.0000 C   0  0  0  0  0  0  0  0  0  0  0  0
  1  2  1  0  0  0  0
  2  5  2  0  0  0  0
  3  2  1  0  0  0  0
  3  4  1  0  0  0  0
  6  4  1  0  0  0  0
  6  7  1  0  0  0  0
  7  8  1  0  0  0  0
  8 11  1  0  0  0  0
  8 17  1  0  0  0  0
  9 10  1  0  0  0  0
  9  6  1  0  0  0  0
 11 10  1  0  0  0  0
 12 10  1  0  0  0  0
 13 14  1  0  0  0  0
 14 27  1  0  0  0  0
 15 13  2  0  0  0  0
 16 15  1  0  0  0  0
 17 18  1  0  0  0  0
 18 19  2  0  0  0  0
 19 20  1  0  0  0  0
 23 19  1  0  0  0  0
 20 22  2  0  0  0  0
 21 20  1  0  0  0  0
 23 24  1  0  0  0  0
 23 37  1  6  0  0  0
 24 26  2  0  0  0  0
 25 18  1  0  0  0  0
 26 27  1  0  0  0  0
 26 25  1  0  0  0  0
 27 16  2  0  0  0  0
 28 29  1  0  0  0  0
 29 21  1  0  0  0  0
 30 31  2  0  0  0  0
 30 37  1  0  0  0  0
 31 32  1  0  0  0  0
 32 34  2  0  0  0  0
 33 32  1  0  0  0  0
 35 36  1  0  0  0  0
 35 34  1  0  0  0  0
 37 35  2  0  0  0  0
M  END
> <ID>
SCHEMBL21146899

> <InChIKey>
KNMXDBFUXYDRRJ-XFMWISLNSA-N

> <MW>
554.99

> <Series_Name>
Series_9

$$$$
SCHEMBL21146900
  Mrv1719007181913052D 0   0.00000     0.00000     0

 37 40  0  0  1  0              1 V2000 
    0.5215   -8.6822    0.0000 O   0  0  0  0  0  0  0  0  0  0  0  0
    1.5889   -8.7390    0.0000 C   0  0  0  0  0  0  0  0  0  0  0  0
    2.0068   -8.1109    0.0000 C   0  0  0  0  0  0  0  0  0  0  0  0
    3.2844   -7.5051    0.0000 C   0  0  0  0  0  0  0  0  0  0  0  0
    3.0960   -6.6584    0.0000 C   0  0  0  0  0  0  0  0  0  0  0  0
    3.6202   -6.1972    0.0000 N   0  0  0  0  0  0  0  0  0  0  0  0
    4.3110   -6.7652    0.0000 C   0  0  0  0  0  0  0  0  0  0  0  0
    4.0758   -7.5047    0.0000 C   0  0  0  0  0  0  0  0  0  0  0  0
    4.8167   -7.4858    0.0000 F   0  0  0  0  0  0  0  0  0  0  0  0
    4.4791   -8.1606    0.0000 F   0  0  0  0  0  0  0  0  0  0  0  0
    2.7841   -8.1897    0.0000 C   0  0  0  0  0  0  0  0  0  0  0  0
    1.8407   -9.5412    0.0000 O   0  0  0  0  0  0  0  0  0  0  0  0
    7.1482   -5.0007    0.0000 N   0  0  0  0  0  0  0  0  0  0  0  0
    7.6909   -5.6321    0.0000 C   0  0  0  0  0  0  0  0  0  0  0  0
    7.3091   -6.3636    0.0000 C   0  0  0  0  0  0  0  0  0  0  0  0
    6.4733   -6.1972    0.0000 S   0  0  0  0  0  0  0  0  0  0  0  0
    3.6611   -5.3772    0.0000 C   0  0  0  0  0  0  0  0  0  0  0  0
    4.3339   -4.9903    0.0000 C   0  0  0  0  0  0  0  0  0  0  0  0
    4.3344   -4.1212    0.0000 C   0  0  0  0  0  0  0  0  0  0  0  0
    3.5793   -3.7304    0.0000 C   0  0  0  0  0  0  0  0  0  0  0  0
    2.9452   -4.1111    0.0000 O   0  0  0  0  0  0  0  0  0  0  0  0
    3.6508   -2.8532    0.0000 O   0  0  0  0  0  0  0  0  0  0  0  0
    5.0235   -3.6729    0.0000 C   0  0  1  0  0  0  0  0  0  0  0  0
    5.6756   -4.0803    0.0000 N   0  0  0  0  0  0  0  0  0  0  0  0
    5.0007   -5.6296    0.0000 N   0  0  0  0  0  0  0  0  0  0  0  0
    5.7478   -4.9918    0.0000 C   0  0  0  0  0  0  0  0  0  0  0  0
    6.4529   -5.3919    0.0000 C   0  0  0  0  0  0  0  0  0  0  0  0
    2.2747   -3.7302    0.0000 C   0  0  0  0  0  0  0  0  0  0  0  0
    1.5345   -4.1707    0.0000 C   0  0  0  0  0  0  0  0  0  0  0  0
    4.3335   -1.5965    0.0000 C   0  0  0  0  0  0  0  0  0  0  0  0
    4.3340   -2.4741    0.0000 C   0  0  0  0  0  0  0  0  0  0  0  0
    5.0497   -1.1870    0.0000 C   0  0  0  0  0  0  0  0  0  0  0  0
    5.0007   -0.3374    0.0000 F   0  0  0  0  0  0  0  0  0  0  0  0
    5.7485   -1.5956    0.0000 C   0  0  0  0  0  0  0  0  0  0  0  0
    5.7486   -2.4815    0.0000 C   0  0  0  0  0  0  0  0  0  0  0  0
    6.5547   -2.8609    0.0000 Cl  0  0  0  0  0  0  0  0  0  0  0  0
    5.0226   -2.8786    0.0000 C   0  0  0  0  0  0  0  0  0  0  0  0
  1  2  1  0  0  0  0
  2 12  2  0  0  0  0
  3  2  1  0  0  0  0
  3 11  2  0  0  0  0
  4  5  1  0  0  0  0
  6  5  1  0  0  0  0
  6 17  1  0  0  0  0
  7  6  1  0  0  0  0
  7  8  1  0  0  0  0
  8  9  1  0  0  0  0
  8  4  1  0  0  0  0
 10  8  1  0  0  0  0
 11  4  1  0  0  0  0
 13 14  1  0  0  0  0
 15 14  2  0  0  0  0
 16 15  1  0  0  0  0
 16 27  1  0  0  0  0
 17 18  1  0  0  0  0
 18 19  2  0  0  0  0
 19 20  1  0  0  0  0
 23 19  1  0  0  0  0
 20 22  2  0  0  0  0
 21 20  1  0  0  0  0
 21 28  1  0  0  0  0
 23 24  1  0  0  0  0
 23 37  1  6  0  0  0
 24 26  2  0  0  0  0
 25 18  1  0  0  0  0
 26 25  1  0  0  0  0
 26 27  1  0  0  0  0
 27 13  2  0  0  0  0
 29 28  1  0  0  0  0
 30 31  2  0  0  0  0
 30 32  1  0  0  0  0
 31 37  1  0  0  0  0
 32 34  2  0  0  0  0
 33 32  1  0  0  0  0
 35 36  1  0  0  0  0
 35 34  1  0  0  0  0
 37 35  2  0  0  0  0
M  END
> <ID>
SCHEMBL21146900

> <InChIKey>
WGFNBTBEGCOZJI-RJDASXTJSA-N

> <MW>
554.97

> <Series_Name>
Series_4

$$$$
SCHEMBL21147103
  Mrv1719007181914052D 0   0.00000     0.00000     0

 31 34  0  0  1  0              1 V2000 
    2.6906   -7.3148    0.0000 C   0  0  1  0  0  0  0  0  0  0  0  0
    1.7529   -7.4946    0.0000 C   0  0  0  0  0  0  0  0  0  0  0  0
    1.6310   -6.5749    0.0000 C   0  0  0  0  0  0  0  0  0  0  0  0
    2.2312   -6.0439    0.0000 N   0  0  0  0  0  0  0  0  0  0  0  0
    2.9260   -6.5683    0.0000 C   0  0  0  0  0  0  0  0  0  0  0  0
    3.1349   -7.9926    0.0000 F   0  0  0  0  0  0  0  0  0  0  0  0
    5.7897   -4.9141    0.0000 N   0  0  0  0  0  0  0  0  0  0  0  0
    6.3775   -5.5299    0.0000 C   0  0  0  0  0  0  0  0  0  0  0  0
    5.9365   -6.2227    0.0000 C   0  0  0  0  0  0  0  0  0  0  0  0
    5.1401   -6.0721    0.0000 S   0  0  0  0  0  0  0  0  0  0  0  0
    2.2670   -5.2613    0.0000 C   0  0  0  0  0  0  0  0  0  0  0  0
    2.9751   -4.8484    0.0000 C   0  0  0  0  0  0  0  0  0  0  0  0
    2.9761   -4.0210    0.0000 C   0  0  0  0  0  0  0  0  0  0  0  0
    2.1934   -3.6527    0.0000 C   0  0  0  0  0  0  0  0  0  0  0  0
    1.5816   -4.0104    0.0000 O   0  0  0  0  0  0  0  0  0  0  0  0
    2.2594   -2.7677    0.0000 O   0  0  0  0  0  0  0  0  0  0  0  0
    3.6858   -3.5889    0.0000 C   0  0  1  0  0  0  0  0  0  0  0  0
    4.3211   -4.0104    0.0000 N   0  0  0  0  0  0  0  0  0  0  0  0
    3.6432   -5.5213    0.0000 N   0  0  0  0  0  0  0  0  0  0  0  0
    4.3823   -4.8557    0.0000 C   0  0  0  0  0  0  0  0  0  0  0  0
    5.0851   -5.2779    0.0000 C   0  0  0  0  0  0  0  0  0  0  0  0
    0.8750   -3.6333    0.0000 C   0  0  0  0  0  0  0  0  0  0  0  0
    0.1932   -4.0095    0.0000 C   0  0  0  0  0  0  0  0  0  0  0  0
    2.9743   -2.3965    0.0000 C   0  0  0  0  0  0  0  0  0  0  0  0
    2.9760   -1.5608    0.0000 C   0  0  0  0  0  0  0  0  0  0  0  0
    3.6432   -0.3389    0.0000 F   0  0  0  0  0  0  0  0  0  0  0  0
    3.6872   -1.1793    0.0000 C   0  0  0  0  0  0  0  0  0  0  0  0
    4.3885   -1.5731    0.0000 C   0  0  0  0  0  0  0  0  0  0  0  0
    4.3822   -2.4007    0.0000 C   0  0  0  0  0  0  0  0  0  0  0  0
    5.1872   -2.7819    0.0000 Cl  0  0  0  0  0  0  0  0  0  0  0  0
    3.6783   -2.8310    0.0000 C   0  0  0  0  0  0  0  0  0  0  0  0
  1  2  1  0  0  0  0
  1  5  1  0  0  0  0
  1  6  1  1  0  0  0
  2  3  1  0  0  0  0
  3  4  1  0  0  0  0
  4  5  1  0  0  0  0
  4 11  1  0  0  0  0
  7  8  1  0  0  0  0
  9  8  2  0  0  0  0
 10  9  1  0  0  0  0
 10 21  1  0  0  0  0
 11 12  1  0  0  0  0
 12 13  2  0  0  0  0
 13 14  1  0  0  0  0
 17 13  1  0  0  0  0
 14 16  2  0  0  0  0
 15 14  1  0  0  0  0
 17 18  1  0  0  0  0
 17 31  1  6  0  0  0
 18 20  2  0  0  0  0
 19 12  1  0  0  0  0
 20 21  1  0  0  0  0
 20 19  1  0  0  0  0
 21  7  2  0  0  0  0
 22 15  1  0  0  0  0
 22 23  1  0  0  0  0
 24 25  2  0  0  0  0
 24 31  1  0  0  0  0
 25 27  1  0  0  0  0
 26 27  1  0  0  0  0
 27 28  2  0  0  0  0
 29 28  1  0  0  0  0
 29 30  1  0  0  0  0
 31 29  2  0  0  0  0
M  END
> <ID>
SCHEMBL21147103

> <InChIKey>
OQCNVVOWRNIZRI-UGSOOPFHSA-N

> <MW>
466.93

> <Series_Name>
Series_4

$$$$
SCHEMBL21147104
  Mrv1719007181914052D 0   0.00000     0.00000     0

 38 41  0  0  1  0              1 V2000 
    2.9887   -9.1103    0.0000 C   0  0  0  0  0  0  0  0  0  0  0  0
    2.2176   -8.7039    0.0000 O   0  0  0  0  0  0  0  0  0  0  0  0
    3.3145   -9.5413    0.0000 C   0  0  0  0  0  0  0  0  0  0  0  0
    3.1041  -10.0388    0.0000 O   0  0  0  0  0  0  0  0  0  0  0  0
    3.8505   -9.4746    0.0000 O   0  0  0  0  0  0  0  0  0  0  0  0
    2.2615   -7.8532    0.0000 C   0  0  0  0  0  0  0  0  0  0  0  0
    1.5777   -7.4370    0.0000 C   0  0  0  0  0  0  0  0  0  0  0  0
    1.5835   -6.6120    0.0000 C   0  0  0  0  0  0  0  0  0  0  0  0
    2.2176   -6.1815    0.0000 N   0  0  0  0  0  0  0  0  0  0  0  0
    3.0209   -7.4291    0.0000 C   0  0  0  0  0  0  0  0  0  0  0  0
    3.0126   -6.6059    0.0000 C   0  0  0  0  0  0  0  0  0  0  0  0
    3.6867   -6.9853    0.0000 F   0  0  0  0  0  0  0  0  0  0  0  0
    3.6867   -7.8446    0.0000 F   0  0  0  0  0  0  0  0  0  0  0  0
    5.8211   -4.9895    0.0000 N   0  0  0  0  0  0  0  0  0  0  0  0
    6.3946   -5.6884    0.0000 C   0  0  0  0  0  0  0  0  0  0  0  0
    5.9670   -6.3832    0.0000 C   0  0  0  0  0  0  0  0  0  0  0  0
    5.1558   -6.1815    0.0000 S   0  0  0  0  0  0  0  0  0  0  0  0
    2.2713   -5.3444    0.0000 C   0  0  0  0  0  0  0  0  0  0  0  0
    3.0031   -4.9557    0.0000 C   0  0  0  0  0  0  0  0  0  0  0  0
    3.0033   -4.1011    0.0000 C   0  0  0  0  0  0  0  0  0  0  0  0
    2.3363   -3.7134    0.0000 C   0  0  0  0  0  0  0  0  0  0  0  0
    1.5246   -4.0748    0.0000 O   0  0  0  0  0  0  0  0  0  0  0  0
    2.2176   -2.8551    0.0000 O   0  0  0  0  0  0  0  0  0  0  0  0
    3.7019   -3.6516    0.0000 C   0  0  1  0  0  0  0  0  0  0  0  0
    4.3519   -4.0748    0.0000 N   0  0  0  0  0  0  0  0  0  0  0  0
    3.6590   -5.6132    0.0000 N   0  0  0  0  0  0  0  0  0  0  0  0
    4.4198   -4.9564    0.0000 C   0  0  0  0  0  0  0  0  0  0  0  0
    5.1392   -5.3289    0.0000 C   0  0  0  0  0  0  0  0  0  0  0  0
    0.8615   -3.6926    0.0000 C   0  0  0  0  0  0  0  0  0  0  0  0
    0.1866   -4.0748    0.0000 C   0  0  0  0  0  0  0  0  0  0  0  0
    3.0191   -1.5996    0.0000 C   0  0  0  0  0  0  0  0  0  0  0  0
    3.6969   -1.1811    0.0000 C   0  0  0  0  0  0  0  0  0  0  0  0
    3.6867   -0.3326    0.0000 F   0  0  0  0  0  0  0  0  0  0  0  0
    4.4263   -1.5865    0.0000 C   0  0  0  0  0  0  0  0  0  0  0  0
    4.4201   -2.4353    0.0000 C   0  0  0  0  0  0  0  0  0  0  0  0
    5.2436   -2.8620    0.0000 Cl  0  0  0  0  0  0  0  0  0  0  0  0
    3.0122   -2.4164    0.0000 C   0  0  0  0  0  0  0  0  0  0  0  0
    3.7022   -2.8708    0.0000 C   0  0  0  0  0  0  0  0  0  0  0  0
  1  2  1  0  0  0  0
  3  4  2  0  0  0  0
  3  5  1  0  0  0  0
  3  1  1  0  0  0  0
  6  7  1  0  0  0  0
  6 10  1  0  0  0  0
  6  2  1  0  0  0  0
  8  9  1  0  0  0  0
  8  7  1  0  0  0  0
  9 11  1  0  0  0  0
 10 12  1  0  0  0  0
 11 10  1  0  0  0  0
 13 10  1  0  0  0  0
 14 15  1  0  0  0  0
 16 15  2  0  0  0  0
 17 16  1  0  0  0  0
 17 28  1  0  0  0  0
 18 19  1  0  0  0  0
 18  9  1  0  0  0  0
 19 20  2  0  0  0  0
 24 20  1  0  0  0  0
 21 20  1  0  0  0  0
 21 22  1  0  0  0  0
 23 21  2  0  0  0  0
 24 25  1  0  0  0  0
 24 38  1  6  0  0  0
 25 27  2  0  0  0  0
 26 19  1  0  0  0  0
 27 26  1  0  0  0  0
 27 28  1  0  0  0  0
 28 14  2  0  0  0  0
 29 22  1  0  0  0  0
 30 29  1  0  0  0  0
 31 32  1  0  0  0  0
 32 34  2  0  0  0  0
 33 32  1  0  0  0  0
 35 34  1  0  0  0  0
 35 36  1  0  0  0  0
 37 38  1  0  0  0  0
 37 31  2  0  0  0  0
 38 35  2  0  0  0  0
M  END
> <ID>
SCHEMBL21147104

> <InChIKey>
CKIUDYGKICGTCN-OZBJMMHXSA-N

> <MW>
572.98

> <Series_Name>
Series_9

$$$$
SCHEMBL21147105
  Mrv1719007181914062D 0   0.00000     0.00000     0

 36 39  0  0  1  0              1 V2000 
    0.8371   -7.8383    0.0000 F   0  0  0  0  0  0  0  0  0  0  0  0
    1.5583   -7.4016    0.0000 C   0  0  0  0  0  0  0  0  0  0  0  0
    0.8371   -6.9758    0.0000 F   0  0  0  0  0  0  0  0  0  0  0  0
    1.5901   -6.5756    0.0000 C   0  0  0  0  0  0  0  0  0  0  0  0
    2.2830   -6.1387    0.0000 N   0  0  0  0  0  0  0  0  0  0  0  0
    2.2979   -7.8367    0.0000 C   0  0  0  0  0  0  0  0  0  0  0  0
    3.0576   -7.4427    0.0000 C   0  0  0  0  0  0  0  0  0  0  0  0
    3.0013   -6.5758    0.0000 C   0  0  0  0  0  0  0  0  0  0  0  0
    3.6782   -6.9758    0.0000 F   0  0  0  0  0  0  0  0  0  0  0  0
    3.6782   -7.8383    0.0000 F   0  0  0  0  0  0  0  0  0  0  0  0
    2.4859   -8.6500    0.0000 O   0  0  0  0  0  0  0  0  0  0  0  0
    5.1748   -6.1387    0.0000 S   0  0  0  0  0  0  0  0  0  0  0  0
    6.0619   -6.3302    0.0000 C   0  0  0  0  0  0  0  0  0  0  0  0
    5.8597   -4.9719    0.0000 N   0  0  0  0  0  0  0  0  0  0  0  0
    6.4395   -5.6201    0.0000 C   0  0  0  0  0  0  0  0  0  0  0  0
    2.2897   -5.3340    0.0000 C   0  0  0  0  0  0  0  0  0  0  0  0
    3.0024   -4.9380    0.0000 C   0  0  0  0  0  0  0  0  0  0  0  0
    3.0025   -4.0922    0.0000 C   0  0  0  0  0  0  0  0  0  0  0  0
    2.2987   -3.7047    0.0000 C   0  0  0  0  0  0  0  0  0  0  0  0
    1.5727   -4.0840    0.0000 O   0  0  0  0  0  0  0  0  0  0  0  0
    2.2830   -2.8411    0.0000 O   0  0  0  0  0  0  0  0  0  0  0  0
    3.7057   -3.6607    0.0000 C   0  0  1  0  0  0  0  0  0  0  0  0
    4.4138   -4.0840    0.0000 N   0  0  0  0  0  0  0  0  0  0  0  0
    3.7035   -5.5933    0.0000 N   0  0  0  0  0  0  0  0  0  0  0  0
    4.4180   -4.9451    0.0000 C   0  0  0  0  0  0  0  0  0  0  0  0
    5.1260   -5.3504    0.0000 C   0  0  0  0  0  0  0  0  0  0  0  0
    0.8467   -3.6885    0.0000 C   0  0  0  0  0  0  0  0  0  0  0  0
    0.1497   -4.0836    0.0000 C   0  0  0  0  0  0  0  0  0  0  0  0
    3.0001   -1.5810    0.0000 C   0  0  0  0  0  0  0  0  0  0  0  0
    3.0002   -2.4256    0.0000 C   0  0  0  0  0  0  0  0  0  0  0  0
    3.7065   -1.1877    0.0000 C   0  0  0  0  0  0  0  0  0  0  0  0
    3.6782   -0.3298    0.0000 F   0  0  0  0  0  0  0  0  0  0  0  0
    4.4193   -1.5989    0.0000 C   0  0  0  0  0  0  0  0  0  0  0  0
    4.4262   -2.4354    0.0000 C   0  0  0  0  0  0  0  0  0  0  0  0
    5.2426   -2.8474    0.0000 Cl  0  0  0  0  0  0  0  0  0  0  0  0
    3.6982   -2.8518    0.0000 C   0  0  0  0  0  0  0  0  0  0  0  0
  1  2  1  0  0  0  0
  2  6  1  0  0  0  0
  3  2  1  0  0  0  0
  4  5  1  0  0  0  0
  4  2  1  0  0  0  0
  5  8  1  0  0  0  0
  5 16  1  0  0  0  0
  7  8  1  0  0  0  0
  7  9  1  0  0  0  0
  7  6  1  0  0  0  0
 10  7  1  0  0  0  0
 11  6  1  0  0  0  0
 12 13  1  0  0  0  0
 12 26  1  0  0  0  0
 13 15  2  0  0  0  0
 14 15  1  0  0  0  0
 16 17  1  0  0  0  0
 17 18  2  0  0  0  0
 22 18  1  0  0  0  0
 19 18  1  0  0  0  0
 19 20  1  0  0  0  0
 21 19  2  0  0  0  0
 22 23  1  0  0  0  0
 22 36  1  6  0  0  0
 23 25  2  0  0  0  0
 24 17  1  0  0  0  0
 25 26  1  0  0  0  0
 25 24  1  0  0  0  0
 26 14  2  0  0  0  0
 27 20  1  0  0  0  0
 28 27  1  0  0  0  0
 29 30  2  0  0  0  0
 29 31  1  0  0  0  0
 30 36  1  0  0  0  0
 31 33  2  0  0  0  0
 32 31  1  0  0  0  0
 33 34  1  0  0  0  0
 34 35  1  0  0  0  0
 36 34  2  0  0  0  0
M  END
> <ID>
SCHEMBL21147105

> <InChIKey>
ULFMJFGLAADSIQ-INIZCTEOSA-N

> <MW>
550.93

> <Series_Name>
Series_9

$$$$
SCHEMBL21147107
  Mrv1719007181914072D 0   0.00000     0.00000     0

 39 42  0  0  1  0              1 V2000 
    1.4766   -8.6204    0.0000 C   0  0  0  0  0  0  0  0  0  0  0  0
    0.4726   -9.0187    0.0000 O   0  0  0  0  0  0  0  0  0  0  0  0
    2.1701   -9.0061    0.0000 C   0  0  0  0  0  0  0  0  0  0  0  0
    2.8623   -8.6137    0.0000 O   0  0  0  0  0  0  0  0  0  0  0  0
    2.9416   -7.7732    0.0000 C   0  0  0  0  0  0  0  0  0  0  0  0
    3.6610   -7.3707    0.0000 C   0  0  0  0  0  0  0  0  0  0  0  0
    3.6705   -6.5312    0.0000 C   0  0  0  0  0  0  0  0  0  0  0  0
    4.2934   -6.1024    0.0000 N   0  0  0  0  0  0  0  0  0  0  0  0
    4.3611   -7.7678    0.0000 C   0  0  0  0  0  0  0  0  0  0  0  0
    5.0979   -7.3766    0.0000 C   0  0  0  0  0  0  0  0  0  0  0  0
    5.0949   -6.5420    0.0000 C   0  0  0  0  0  0  0  0  0  0  0  0
    5.8865   -7.3716    0.0000 F   0  0  0  0  0  0  0  0  0  0  0  0
    5.4814   -8.1007    0.0000 F   0  0  0  0  0  0  0  0  0  0  0  0
    8.5493   -5.5826    0.0000 C   0  0  0  0  0  0  0  0  0  0  0  0
    7.9656   -4.9684    0.0000 S   0  0  0  0  0  0  0  0  0  0  0  0
    8.1539   -6.2915    0.0000 C   0  0  0  0  0  0  0  0  0  0  0  0
    7.2636   -6.1024    0.0000 N   0  0  0  0  0  0  0  0  0  0  0  0
    4.3996   -5.2887    0.0000 C   0  0  0  0  0  0  0  0  0  0  0  0
    5.0871   -4.8849    0.0000 C   0  0  0  0  0  0  0  0  0  0  0  0
    5.0966   -4.0462    0.0000 C   0  0  0  0  0  0  0  0  0  0  0  0
    4.2883   -3.6878    0.0000 C   0  0  0  0  0  0  0  0  0  0  0  0
    3.5913   -4.0503    0.0000 O   0  0  0  0  0  0  0  0  0  0  0  0
    4.3204   -2.8082    0.0000 O   0  0  0  0  0  0  0  0  0  0  0  0
    5.8135   -3.6575    0.0000 C   0  0  1  0  0  0  0  0  0  0  0  0
    6.4534   -4.0503    0.0000 N   0  0  0  0  0  0  0  0  0  0  0  0
    5.7514   -5.5354    0.0000 N   0  0  0  0  0  0  0  0  0  0  0  0
    6.5601   -4.8906    0.0000 C   0  0  0  0  0  0  0  0  0  0  0  0
    7.2546   -5.2885    0.0000 C   0  0  0  0  0  0  0  0  0  0  0  0
    2.9135   -3.6587    0.0000 C   0  0  0  0  0  0  0  0  0  0  0  0
    2.1776   -4.0776    0.0000 C   0  0  0  0  0  0  0  0  0  0  0  0
    5.8217   -1.1600    0.0000 C   0  0  0  0  0  0  0  0  0  0  0  0
    5.1017   -1.5628    0.0000 C   0  0  0  0  0  0  0  0  0  0  0  0
    5.7784   -0.3240    0.0000 F   0  0  0  0  0  0  0  0  0  0  0  0
    6.5395   -1.5725    0.0000 C   0  0  0  0  0  0  0  0  0  0  0  0
    6.5506   -2.3777    0.0000 C   0  0  0  0  0  0  0  0  0  0  0  0
    7.3905   -2.8441    0.0000 Br  0  0  0  0  0  0  0  0  0  0  0  0
    5.7956   -2.7950    0.0000 C   0  0  0  0  0  0  0  0  0  0  0  0
    5.1067   -2.3833    0.0000 C   0  0  0  0  0  0  0  0  0  0  0  0
    1.4311   -7.7767    0.0000 O   0  0  0  0  0  0  0  0  0  0  0  0
  1  2  1  0  0  0  0
  1  3  1  0  0  0  0
  3  4  1  0  0  0  0
  5  6  1  0  0  0  0
  5  4  1  0  0  0  0
  7  8  1  0  0  0  0
  7  6  1  0  0  0  0
  8 11  1  0  0  0  0
  9 10  1  0  0  0  0
  9  6  1  0  0  0  0
 10 12  1  0  0  0  0
 10 13  1  0  0  0  0
 11 10  1  0  0  0  0
 14 15  1  0  0  0  0
 15 28  1  0  0  0  0
 16 14  2  0  0  0  0
 17 16  1  0  0  0  0
 18 19  1  0  0  0  0
 18  8  1  0  0  0  0
 19 20  2  0  0  0  0
 20 21  1  0  0  0  0
 24 20  1  0  0  0  0
 21 23  2  0  0  0  0
 22 21  1  0  0  0  0
 24 25  1  0  0  0  0
 24 37  1  6  0  0  0
 25 27  2  0  0  0  0
 26 19  1  0  0  0  0
 27 26  1  0  0  0  0
 27 28  1  0  0  0  0
 28 17  2  0  0  0  0
 29 22  1  0  0  0  0
 29 30  1  0  0  0  0
 31 32  1  0  0  0  0
 31 34  2  0  0  0  0
 32 38  2  0  0  0  0
 33 31  1  0  0  0  0
 34 35  1  0  0  0  0
 35 36  1  0  0  0  0
 37 35  2  0  0  0  0
 38 37  1  0  0  0  0
 39  1  2  0  0  0  0
M  END
> <ID>
SCHEMBL21147107

> <InChIKey>
HKSTYBKPIIDKRS-YNNZGITBSA-N

> <MW>
631.47

> <Series_Name>
Series_9

$$$$
SCHEMBL21147117
  Mrv1719007181914112D 0   0.00000     0.00000     0

 37 40  0  0  1  0              1 V2000 
    1.0633   -7.6612    0.0000 O   0  0  0  0  0  0  0  0  0  0  0  0
    1.2537   -8.5011    0.0000 C   0  0  0  0  0  0  0  0  0  0  0  0
    2.0649   -8.6516    0.0000 C   0  0  0  0  0  0  0  0  0  0  0  0
    2.4810   -7.9885    0.0000 S   0  0  0  0  0  0  0  0  0  0  0  0
    0.4907   -9.0517    0.0000 O   0  0  0  0  0  0  0  0  0  0  0  0
    3.7917   -7.4335    0.0000 C   0  0  0  0  0  0  0  0  0  0  0  0
    3.5403   -6.6466    0.0000 C   0  0  0  0  0  0  0  0  0  0  0  0
    4.1714   -6.1345    0.0000 N   0  0  0  0  0  0  0  0  0  0  0  0
    4.6335   -7.4291    0.0000 C   0  0  0  0  0  0  0  0  0  0  0  0
    4.8752   -6.6441    0.0000 C   0  0  0  0  0  0  0  0  0  0  0  0
    4.9893   -8.0975    0.0000 F   0  0  0  0  0  0  0  0  0  0  0  0
    3.2694   -8.1138    0.0000 C   0  0  0  0  0  0  0  0  0  0  0  0
    7.8328   -6.3018    0.0000 C   0  0  0  0  0  0  0  0  0  0  0  0
    8.2504   -5.5791    0.0000 C   0  0  0  0  0  0  0  0  0  0  0  0
    7.6612   -4.9621    0.0000 N   0  0  0  0  0  0  0  0  0  0  0  0
    7.0342   -6.1345    0.0000 S   0  0  0  0  0  0  0  0  0  0  0  0
    4.9243   -4.8920    0.0000 C   0  0  0  0  0  0  0  0  0  0  0  0
    4.2077   -5.3236    0.0000 C   0  0  0  0  0  0  0  0  0  0  0  0
    4.1936   -3.7030    0.0000 C   0  0  0  0  0  0  0  0  0  0  0  0
    4.9173   -4.0488    0.0000 C   0  0  0  0  0  0  0  0  0  0  0  0
    3.4626   -4.0624    0.0000 O   0  0  0  0  0  0  0  0  0  0  0  0
    4.1987   -2.8082    0.0000 O   0  0  0  0  0  0  0  0  0  0  0  0
    5.5938   -3.6333    0.0000 C   0  0  1  0  0  0  0  0  0  0  0  0
    6.2435   -4.0624    0.0000 N   0  0  0  0  0  0  0  0  0  0  0  0
    5.5346   -5.5756    0.0000 N   0  0  0  0  0  0  0  0  0  0  0  0
    6.2767   -4.9080    0.0000 C   0  0  0  0  0  0  0  0  0  0  0  0
    6.9951   -5.3323    0.0000 C   0  0  0  0  0  0  0  0  0  0  0  0
    2.8096   -3.6671    0.0000 C   0  0  0  0  0  0  0  0  0  0  0  0
    2.1226   -4.0615    0.0000 C   0  0  0  0  0  0  0  0  0  0  0  0
    4.8881   -2.4182    0.0000 C   0  0  0  0  0  0  0  0  0  0  0  0
    4.8973   -1.6019    0.0000 C   0  0  0  0  0  0  0  0  0  0  0  0
    5.6057   -1.1939    0.0000 C   0  0  0  0  0  0  0  0  0  0  0  0
    5.5619   -0.3272    0.0000 F   0  0  0  0  0  0  0  0  0  0  0  0
    6.2866   -1.5893    0.0000 C   0  0  0  0  0  0  0  0  0  0  0  0
    6.2821   -2.4233    0.0000 C   0  0  0  0  0  0  0  0  0  0  0  0
    7.0934   -2.8593    0.0000 Br  0  0  0  0  0  0  0  0  0  0  0  0
    5.5899   -2.8662    0.0000 C   0  0  0  0  0  0  0  0  0  0  0  0
  1  2  2  0  0  0  0
  2  3  1  0  0  0  0
  2  5  1  0  0  0  0
  3  4  1  0  0  0  0
  6  7  1  0  0  0  0
  6 12  1  0  0  0  0
  7  8  1  0  0  0  0
  8 10  1  0  0  0  0
  8 18  1  0  0  0  0
  9 10  1  0  0  0  0
  9 11  1  0  0  0  0
  9  6  1  0  0  0  0
 12  4  1  0  0  0  0
 13 14  2  0  0  0  0
 15 14  1  0  0  0  0
 16 13  1  0  0  0  0
 16 27  1  0  0  0  0
 17 18  1  0  0  0  0
 17 25  1  0  0  0  0
 19 20  1  0  0  0  0
 19 22  2  0  0  0  0
 20 17  2  0  0  0  0
 21 19  1  0  0  0  0
 23 20  1  0  0  0  0
 23 24  1  0  0  0  0
 23 37  1  6  0  0  0
 24 26  2  0  0  0  0
 26 27  1  0  0  0  0
 26 25  1  0  0  0  0
 27 15  2  0  0  0  0
 28 21  1  0  0  0  0
 29 28  1  0  0  0  0
 30 31  2  0  0  0  0
 30 37  1  0  0  0  0
 31 32  1  0  0  0  0
 32 34  2  0  0  0  0
 33 32  1  0  0  0  0
 35 36  1  0  0  0  0
 35 34  1  0  0  0  0
 37 35  2  0  0  0  0
M  END
> <ID>
SCHEMBL21147117

> <InChIKey>
XTUHXXGRXIGBEZ-HAKZDTQMSA-N

> <MW>
615.51

> <Series_Name>
Series_4

$$$$
SCHEMBL21147118
  Mrv1719007181914112D 0   0.00000     0.00000     0

 33 36  0  0  1  0              1 V2000 
    2.2258   -7.7429    0.0000 C   0  0  0  0  0  0  0  0  0  0  0  0
    1.5368   -7.3115    0.0000 C   0  0  0  0  0  0  0  0  0  0  0  0
    1.5483   -6.4787    0.0000 C   0  0  0  0  0  0  0  0  0  0  0  0
    2.1864   -6.0944    0.0000 N   0  0  0  0  0  0  0  0  0  0  0  0
    2.9091   -7.3216    0.0000 C   0  0  0  0  0  0  0  0  0  0  0  0
    2.9157   -6.4806    0.0000 C   0  0  0  0  0  0  0  0  0  0  0  0
    3.5801   -7.7342    0.0000 F   0  0  0  0  0  0  0  0  0  0  0  0
    2.4050   -8.5540    0.0000 O   0  0  0  0  0  0  0  0  0  0  0  0
    5.6572   -4.9193    0.0000 N   0  0  0  0  0  0  0  0  0  0  0  0
    6.2893   -5.5200    0.0000 C   0  0  0  0  0  0  0  0  0  0  0  0
    5.8815   -6.2413    0.0000 C   0  0  0  0  0  0  0  0  0  0  0  0
    5.0286   -6.0944    0.0000 S   0  0  0  0  0  0  0  0  0  0  0  0
    2.2227   -5.2548    0.0000 C   0  0  0  0  0  0  0  0  0  0  0  0
    2.9105   -4.8596    0.0000 C   0  0  0  0  0  0  0  0  0  0  0  0
    2.9109   -4.0318    0.0000 C   0  0  0  0  0  0  0  0  0  0  0  0
    2.3113   -3.6677    0.0000 C   0  0  0  0  0  0  0  0  0  0  0  0
    1.5305   -4.0174    0.0000 O   0  0  0  0  0  0  0  0  0  0  0  0
    2.2136   -2.7877    0.0000 O   0  0  0  0  0  0  0  0  0  0  0  0
    3.6103   -3.5558    0.0000 C   0  0  1  0  0  0  0  0  0  0  0  0
    4.2361   -4.0174    0.0000 N   0  0  0  0  0  0  0  0  0  0  0  0
    3.5528   -5.5342    0.0000 N   0  0  0  0  0  0  0  0  0  0  0  0
    4.2984   -4.8641    0.0000 C   0  0  0  0  0  0  0  0  0  0  0  0
    5.0135   -5.2699    0.0000 C   0  0  0  0  0  0  0  0  0  0  0  0
    0.7874   -3.6416    0.0000 C   0  0  0  0  0  0  0  0  0  0  0  0
    0.1608   -4.0173    0.0000 C   0  0  0  0  0  0  0  0  0  0  0  0
    2.9037   -1.5881    0.0000 C   0  0  0  0  0  0  0  0  0  0  0  0
    2.9040   -2.4246    0.0000 C   0  0  0  0  0  0  0  0  0  0  0  0
    3.6207   -1.1684    0.0000 C   0  0  0  0  0  0  0  0  0  0  0  0
    3.5801   -0.3279    0.0000 F   0  0  0  0  0  0  0  0  0  0  0  0
    4.2975   -1.5745    0.0000 C   0  0  0  0  0  0  0  0  0  0  0  0
    4.3016   -2.4304    0.0000 C   0  0  0  0  0  0  0  0  0  0  0  0
    5.0877   -2.7944    0.0000 Cl  0  0  0  0  0  0  0  0  0  0  0  0
    3.6006   -2.8121    0.0000 C   0  0  0  0  0  0  0  0  0  0  0  0
  1  2  1  0  0  0  0
  1  5  1  0  0  0  0
  1  8  1  0  0  0  0
  2  3  1  0  0  0  0
  3  4  1  0  0  0  0
  4  6  1  0  0  0  0
  4 13  1  0  0  0  0
  6  5  1  0  0  0  0
  7  5  1  0  0  0  0
  9 10  1  0  0  0  0
 11 10  2  0  0  0  0
 12 11  1  0  0  0  0
 12 23  1  0  0  0  0
 13 14  1  0  0  0  0
 14 15  2  0  0  0  0
 19 15  1  0  0  0  0
 16 15  1  0  0  0  0
 16 17  1  0  0  0  0
 18 16  2  0  0  0  0
 19 20  1  0  0  0  0
 19 33  1  6  0  0  0
 20 22  2  0  0  0  0
 21 14  1  0  0  0  0
 22 21  1  0  0  0  0
 22 23  1  0  0  0  0
 23  9  2  0  0  0  0
 24 17  1  0  0  0  0
 25 24  1  0  0  0  0
 26 27  2  0  0  0  0
 26 28  1  0  0  0  0
 27 33  1  0  0  0  0
 28 30  2  0  0  0  0
 29 28  1  0  0  0  0
 31 30  1  0  0  0  0
 31 32  1  0  0  0  0
 33 31  2  0  0  0  0
M  END
> <ID>
SCHEMBL21147118

> <InChIKey>
RUEVENPYNHEVJS-KVWWFHCMSA-N

> <MW>
496.96

> <Series_Name>
Series_9

$$$$
SCHEMBL21147119
  Mrv1719007181914112D 0   0.00000     0.00000     0

 33 36  0  0  1  0              1 V2000 
    2.2841   -7.8144    0.0000 C   0  0  0  0  0  0  0  0  0  0  0  0
    1.5612   -7.4167    0.0000 C   0  0  0  0  0  0  0  0  0  0  0  0
    1.5736   -6.5602    0.0000 C   0  0  0  0  0  0  0  0  0  0  0  0
    2.2378   -6.1228    0.0000 N   0  0  0  0  0  0  0  0  0  0  0  0
    2.9965   -7.4178    0.0000 C   0  0  0  0  0  0  0  0  0  0  0  0
    2.9952   -6.5602    0.0000 C   0  0  0  0  0  0  0  0  0  0  0  0
    3.6676   -7.8013    0.0000 F   0  0  0  0  0  0  0  0  0  0  0  0
    2.4709   -8.6404    0.0000 O   0  0  0  0  0  0  0  0  0  0  0  0
    5.9794   -6.3114    0.0000 C   0  0  0  0  0  0  0  0  0  0  0  0
    6.3654   -5.5930    0.0000 C   0  0  0  0  0  0  0  0  0  0  0  0
    5.7810   -4.9730    0.0000 N   0  0  0  0  0  0  0  0  0  0  0  0
    5.1283   -6.1228    0.0000 S   0  0  0  0  0  0  0  0  0  0  0  0
    2.2226   -3.7252    0.0000 C   0  0  0  0  0  0  0  0  0  0  0  0
    3.0017   -4.0997    0.0000 C   0  0  0  0  0  0  0  0  0  0  0  0
    1.5540   -4.0716    0.0000 O   0  0  0  0  0  0  0  0  0  0  0  0
    2.2689   -2.8283    0.0000 O   0  0  0  0  0  0  0  0  0  0  0  0
    3.6856   -3.5654    0.0000 C   0  0  1  0  0  0  0  0  0  0  0  0
    4.3513   -4.0716    0.0000 N   0  0  0  0  0  0  0  0  0  0  0  0
    3.0036   -4.9110    0.0000 C   0  0  0  0  0  0  0  0  0  0  0  0
    3.6676   -5.6101    0.0000 N   0  0  0  0  0  0  0  0  0  0  0  0
    2.2814   -5.3210    0.0000 C   0  0  0  0  0  0  0  0  0  0  0  0
    4.3955   -4.9085    0.0000 C   0  0  0  0  0  0  0  0  0  0  0  0
    5.1098   -5.3388    0.0000 C   0  0  0  0  0  0  0  0  0  0  0  0
    0.8617   -3.7195    0.0000 C   0  0  0  0  0  0  0  0  0  0  0  0
    0.1936   -4.0852    0.0000 C   0  0  0  0  0  0  0  0  0  0  0  0
    2.9921   -2.4444    0.0000 C   0  0  0  0  0  0  0  0  0  0  0  0
    2.9962   -1.5958    0.0000 C   0  0  0  0  0  0  0  0  0  0  0  0
    3.6676   -0.3419    0.0000 F   0  0  0  0  0  0  0  0  0  0  0  0
    3.6980   -1.1931    0.0000 C   0  0  0  0  0  0  0  0  0  0  0  0
    4.4033   -1.5945    0.0000 C   0  0  0  0  0  0  0  0  0  0  0  0
    4.4038   -2.4458    0.0000 C   0  0  0  0  0  0  0  0  0  0  0  0
    5.2113   -2.8633    0.0000 Br  0  0  0  0  0  0  0  0  0  0  0  0
    3.6896   -2.8509    0.0000 C   0  0  0  0  0  0  0  0  0  0  0  0
  1  2  1  0  0  0  0
  1  5  1  0  0  0  0
  1  8  1  0  0  0  0
  2  3  1  0  0  0  0
  3  4  1  0  0  0  0
  4  6  1  0  0  0  0
  4 21  1  0  0  0  0
  6  5  1  0  0  0  0
  7  5  1  0  0  0  0
  9 10  2  0  0  0  0
 11 10  1  0  0  0  0
 12  9  1  0  0  0  0
 12 23  1  0  0  0  0
 13 14  1  0  0  0  0
 13 16  2  0  0  0  0
 14 19  2  0  0  0  0
 15 13  1  0  0  0  0
 15 24  1  0  0  0  0
 17 14  1  0  0  0  0
 17 18  1  0  0  0  0
 17 33  1  6  0  0  0
 18 22  2  0  0  0  0
 19 20  1  0  0  0  0
 19 21  1  0  0  0  0
 22 20  1  0  0  0  0
 22 23  1  0  0  0  0
 23 11  2  0  0  0  0
 24 25  1  0  0  0  0
 26 27  2  0  0  0  0
 26 33  1  0  0  0  0
 27 29  1  0  0  0  0
 28 29  1  0  0  0  0
 29 30  2  0  0  0  0
 31 30  1  0  0  0  0
 31 32  1  0  0  0  0
 33 31  2  0  0  0  0
M  END
> <ID>
SCHEMBL21147119

> <InChIKey>
VLZNUTUYDQKJAC-KVWWFHCMSA-N

> <MW>
541.41

> <Series_Name>
Series_9

$$$$
SCHEMBL21147151
  Mrv1719007181914222D 0   0.00000     0.00000     0

 39 42  0  0  1  0              1 V2000 
    2.9604   -9.1865    0.0000 N   0  0  0  0  0  0  0  0  0  0  0  0
    3.0020  -10.0563    0.0000 C   0  0  0  0  0  0  0  0  0  0  0  0
    1.5911   -9.1217    0.0000 C   0  0  0  0  0  0  0  0  0  0  0  0
    0.5188   -8.7592    0.0000 O   0  0  0  0  0  0  0  0  0  0  0  0
    2.2224   -8.7563    0.0000 C   0  0  0  0  0  0  0  0  0  0  0  0
    1.4955  -10.0105    0.0000 O   0  0  0  0  0  0  0  0  0  0  0  0
    3.7489   -7.9010    0.0000 C   0  0  0  0  0  0  0  0  0  0  0  0
    3.0388   -7.5051    0.0000 C   0  0  0  0  0  0  0  0  0  0  0  0
    3.0113   -6.6456    0.0000 C   0  0  0  0  0  0  0  0  0  0  0  0
    3.6624   -6.2261    0.0000 N   0  0  0  0  0  0  0  0  0  0  0  0
    4.4554   -7.4808    0.0000 C   0  0  0  0  0  0  0  0  0  0  0  0
    4.4450   -6.6635    0.0000 C   0  0  0  0  0  0  0  0  0  0  0  0
    5.1579   -7.9047    0.0000 F   0  0  0  0  0  0  0  0  0  0  0  0
    3.7432   -8.7521    0.0000 C   0  0  0  0  0  0  0  0  0  0  0  0
    6.6533   -6.2261    0.0000 N   0  0  0  0  0  0  0  0  0  0  0  0
    7.4662   -6.3939    0.0000 C   0  0  0  0  0  0  0  0  0  0  0  0
    7.9657   -5.6701    0.0000 C   0  0  0  0  0  0  0  0  0  0  0  0
    7.3248   -5.0358    0.0000 S   0  0  0  0  0  0  0  0  0  0  0  0
    3.7520   -5.3691    0.0000 C   0  0  0  0  0  0  0  0  0  0  0  0
    4.4365   -4.9398    0.0000 C   0  0  0  0  0  0  0  0  0  0  0  0
    4.4510   -4.1167    0.0000 C   0  0  0  0  0  0  0  0  0  0  0  0
    3.7917   -3.7372    0.0000 C   0  0  0  0  0  0  0  0  0  0  0  0
    2.9604   -4.1202    0.0000 O   0  0  0  0  0  0  0  0  0  0  0  0
    3.6929   -2.8689    0.0000 O   0  0  0  0  0  0  0  0  0  0  0  0
    5.1641   -3.7112    0.0000 C   0  0  1  0  0  0  0  0  0  0  0  0
    5.8293   -4.1202    0.0000 N   0  0  0  0  0  0  0  0  0  0  0  0
    5.1273   -5.6309    0.0000 N   0  0  0  0  0  0  0  0  0  0  0  0
    5.9194   -4.9477    0.0000 C   0  0  0  0  0  0  0  0  0  0  0  0
    6.6026   -5.3705    0.0000 C   0  0  0  0  0  0  0  0  0  0  0  0
    2.2211   -3.7078    0.0000 C   0  0  0  0  0  0  0  0  0  0  0  0
    1.5215   -4.1151    0.0000 C   0  0  0  0  0  0  0  0  0  0  0  0
    4.4540   -1.5835    0.0000 C   0  0  0  0  0  0  0  0  0  0  0  0
    5.1879   -1.1635    0.0000 C   0  0  0  0  0  0  0  0  0  0  0  0
    5.1579   -0.3357    0.0000 F   0  0  0  0  0  0  0  0  0  0  0  0
    5.9018   -1.5860    0.0000 C   0  0  0  0  0  0  0  0  0  0  0  0
    5.9060   -2.4106    0.0000 C   0  0  0  0  0  0  0  0  0  0  0  0
    6.7193   -2.8994    0.0000 Cl  0  0  0  0  0  0  0  0  0  0  0  0
    4.4470   -2.4085    0.0000 C   0  0  0  0  0  0  0  0  0  0  0  0
    5.1511   -2.8440    0.0000 C   0  0  0  0  0  0  0  0  0  0  0  0
  1  2  1  0  0  0  0
  3  4  1  0  0  0  0
  3  5  1  0  0  0  0
  5  1  1  0  0  0  0
  6  3  2  0  0  0  0
  7  8  1  0  0  0  0
  7 11  1  0  0  0  0
  7 14  1  0  0  0  0
  9 10  1  0  0  0  0
  9  8  1  0  0  0  0
 10 12  1  0  0  0  0
 11 13  1  0  0  0  0
 12 11  1  0  0  0  0
 14  1  1  0  0  0  0
 15 16  1  0  0  0  0
 16 17  2  0  0  0  0
 17 18  1  0  0  0  0
 18 29  1  0  0  0  0
 19 20  1  0  0  0  0
 19 10  1  0  0  0  0
 20 21  2  0  0  0  0
 21 22  1  0  0  0  0
 25 21  1  0  0  0  0
 22 23  1  0  0  0  0
 24 22  2  0  0  0  0
 25 26  1  0  0  0  0
 25 39  1  6  0  0  0
 26 28  2  0  0  0  0
 27 20  1  0  0  0  0
 28 27  1  0  0  0  0
 28 29  1  0  0  0  0
 29 15  2  0  0  0  0
 30 23  1  0  0  0  0
 30 31  1  0  0  0  0
 32 33  1  0  0  0  0
 33 35  2  0  0  0  0
 34 33  1  0  0  0  0
 36 35  1  0  0  0  0
 36 37  1  0  0  0  0
 38 32  2  0  0  0  0
 38 39  1  0  0  0  0
 39 36  2  0  0  0  0
M  END
> <ID>
SCHEMBL21147151

> <InChIKey>
CEHAUMQIRXPCGS-LTSZJICASA-N

> <MW>
582.06

> <Series_Name>
Series_9

$$$$
SCHEMBL21150640
  Mrv1719007191900022D 0   0.00000     0.00000     0

 34 37  0  0  1  0              1 V2000 
    9.0997   -3.3785    0.0000 C   0  0  0  0  0  0  0  0  0  0  0  0
    8.3919   -2.9655    0.0000 C   0  0  0  0  0  0  0  0  0  0  0  0
    7.5552   -3.3755    0.0000 Cl  0  0  0  0  0  0  0  0  0  0  0  0
    8.3944   -2.1388    0.0000 C   0  0  0  0  0  0  0  0  0  0  0  0
    7.6749   -1.7351    0.0000 C   0  0  0  0  0  0  0  0  0  0  0  0
    6.9537   -2.1361    0.0000 C   0  0  0  0  0  0  0  0  0  0  0  0
    5.5329   -2.1414    0.0000 C   0  0  0  0  0  0  0  0  0  0  0  0
    6.2534   -1.7349    0.0000 C   0  0  0  0  0  0  0  0  0  0  0  0
    4.8106   -1.7125    0.0000 N   0  0  0  0  0  0  0  0  0  0  0  0
    5.5296   -0.4837    0.0000 N   0  0  0  0  0  0  0  0  0  0  0  0
    6.2515   -0.9051    0.0000 C   0  0  0  0  0  0  0  0  0  0  0  0
    6.9610   -0.4940    0.0000 C   0  0  0  0  0  0  0  0  0  0  0  0
    9.0989   -1.7340    0.0000 C   0  0  0  0  0  0  0  0  0  0  0  0
    9.1631   -0.9048    0.0000 Cl  0  0  0  0  0  0  0  0  0  0  0  0
    9.8301   -2.1422    0.0000 C   0  0  0  0  0  0  0  0  0  0  0  0
   10.5233   -1.7256    0.0000 O   0  0  0  0  0  0  0  0  0  0  0  0
    9.7966   -2.9773    0.0000 C   0  0  0  0  0  0  0  0  0  0  0  0
    9.0853   -4.1963    0.0000 O   0  0  0  0  0  0  0  0  0  0  0  0
    7.6771   -0.9167    0.0000 C   0  0  0  0  0  0  0  0  0  0  0  0
    2.6165   -1.9901    0.0000 C   0  0  1  0  0  0  0  0  0  0  0  0
    2.4352   -2.7548    0.0000 C   0  0  0  0  0  0  0  0  0  0  0  0
    2.1177   -1.3073    0.0000 N   0  0  0  0  0  0  0  0  0  0  0  0
    3.3785   -1.7365    0.0000 C   0  0  0  0  0  0  0  0  0  0  0  0
    3.3818   -0.9064    0.0000 C   0  0  2  0  0  0  0  0  0  0  0  0
    2.6104   -0.6605    0.0000 C   0  0  0  0  0  0  0  0  0  0  0  0
    3.0982   -3.3596    0.0000 O   0  0  0  0  0  0  0  0  0  0  0  0
    0.8758   -0.5883    0.0000 O   0  0  0  0  0  0  0  0  0  0  0  0
    1.3236   -1.3260    0.0000 C   0  0  0  0  0  0  0  0  0  0  0  0
    0.8900   -2.0310    0.0000 C   0  0  0  0  0  0  0  0  0  0  0  0
    0.0654   -2.0327    0.0000 C   0  0  0  0  0  0  0  0  0  0  0  0
    4.8279   -0.9065    0.0000 C   0  0  0  0  0  0  0  0  0  0  0  0
    4.0851   -0.3333    0.0000 N   0  0  0  0  0  0  0  0  0  0  0  0
   10.5420   -0.9085    0.0000 C   0  0  0  0  0  0  0  0  0  0  0  0
    9.8179   -4.6145    0.0000 C   0  0  0  0  0  0  0  0  0  0  0  0
  1  2  1  0  0  0  0
  1 17  2  0  0  0  0
  2  4  2  0  0  0  0
  3  2  1  0  0  0  0
  4  5  1  0  0  0  0
  4 13  1  0  0  0  0
  6  5  2  0  0  0  0
  7  8  2  0  0  0  0
  7  9  1  0  0  0  0
  8  6  1  0  0  0  0
  9 31  2  0  0  0  0
 10 11  2  0  0  0  0
 11 12  1  0  0  0  0
 11  8  1  0  0  0  0
 12 19  2  0  0  0  0
 13 15  2  0  0  0  0
 14 13  1  0  0  0  0
 15 16  1  0  0  0  0
 15 17  1  0  0  0  0
 18  1  1  0  0  0  0
 18 34  1  0  0  0  0
 19  5  1  0  0  0  0
 20 21  1  1  0  0  0
 20 22  1  0  0  0  0
 24 23  1  0  0  0  0
 20 23  1  0  0  0  0
 24 32  1  6  0  0  0
 24 25  1  0  0  0  0
 25 22  1  0  0  0  0
 26 21  1  0  0  0  0
 27 28  2  0  0  0  0
 28 22  1  0  0  0  0
 29 28  1  0  0  0  0
 30 29  2  0  0  0  0
 31 32  1  0  0  0  0
 31 10  1  0  0  0  0
 33 16  1  0  0  0  0
M  END
> <ID>
SCHEMBL21150640

> <InChIKey>
YVXAXVKOFFUUJI-CVEARBPZSA-N

> <MW>
503.38

> <Series_Name>
Series_15

$$$$
SCHEMBL21150642
  Mrv1719007191900022D 0   0.00000     0.00000     0

 39 43  0  0  1  0              1 V2000 
    1.2440   -4.2028    0.0000 C   0  0  0  0  0  0  0  0  0  0  0  0
    1.4289   -3.3881    0.0000 N   0  0  0  0  0  0  0  0  0  0  0  0
    2.0081   -4.4144    0.0000 C   0  0  0  0  0  0  0  0  0  0  0  0
    2.2253   -3.6237    0.0000 C   0  0  0  0  0  0  0  0  0  0  0  0
    7.3562   -3.0457    0.0000 C   0  0  0  0  0  0  0  0  0  0  0  0
    8.0751   -3.4492    0.0000 C   0  0  0  0  0  0  0  0  0  0  0  0
    6.5304   -3.4487    0.0000 Cl  0  0  0  0  0  0  0  0  0  0  0  0
    6.6299   -1.8006    0.0000 C   0  0  0  0  0  0  0  0  0  0  0  0
    7.3574   -2.2109    0.0000 C   0  0  0  0  0  0  0  0  0  0  0  0
    4.4856   -2.2215    0.0000 C   0  0  0  0  0  0  0  0  0  0  0  0
    5.2115   -1.8006    0.0000 C   0  0  0  0  0  0  0  0  0  0  0  0
    3.7564   -1.7824    0.0000 N   0  0  0  0  0  0  0  0  0  0  0  0
    4.4782   -0.5450    0.0000 N   0  0  0  0  0  0  0  0  0  0  0  0
    5.2142   -0.9701    0.0000 C   0  0  0  0  0  0  0  0  0  0  0  0
    8.0746   -1.8024    0.0000 C   0  0  0  0  0  0  0  0  0  0  0  0
    8.1656   -0.9592    0.0000 Cl  0  0  0  0  0  0  0  0  0  0  0  0
    8.8020   -2.2113    0.0000 C   0  0  0  0  0  0  0  0  0  0  0  0
    9.4868   -1.7824    0.0000 O   0  0  0  0  0  0  0  0  0  0  0  0
    8.7974   -3.0356    0.0000 C   0  0  0  0  0  0  0  0  0  0  0  0
    8.0578   -4.2720    0.0000 O   0  0  0  0  0  0  0  0  0  0  0  0
    6.6270   -0.9696    0.0000 C   0  0  0  0  0  0  0  0  0  0  0  0
    5.9176   -0.5607    0.0000 C   0  0  0  0  0  0  0  0  0  0  0  0
    5.9143   -2.2084    0.0000 C   0  0  0  0  0  0  0  0  0  0  0  0
    0.2062   -2.8873    0.0000 O   0  0  0  0  0  0  0  0  0  0  0  0
    1.0592   -2.6497    0.0000 C   0  0  0  0  0  0  0  0  0  0  0  0
    1.4325   -1.9660    0.0000 C   0  0  1  0  0  0  0  0  0  0  0  0
    0.8544   -1.2374    0.0000 N   0  0  0  0  0  0  0  0  0  0  0  0
    1.5778   -0.6353    0.0000 C   0  0  0  0  0  0  0  0  0  0  0  0
    2.3345   -0.9640    0.0000 C   0  0  1  0  0  0  0  0  0  0  0  0
    3.0272   -0.3756    0.0000 N   0  0  0  0  0  0  0  0  0  0  0  0
    2.2170   -1.8066    0.0000 C   0  0  0  0  0  0  0  0  0  0  0  0
   10.1341   -1.2562    0.0000 C   0  0  0  0  0  0  0  0  0  0  0  0
   10.8370   -0.8683    0.0000 C   0  0  0  0  0  0  0  0  0  0  0  0
   11.6204   -1.2456    0.0000 C   0  0  0  0  0  0  0  0  0  0  0  0
   11.5343   -2.0918    0.0000 O   0  0  0  0  0  0  0  0  0  0  0  0
    3.7760   -0.9672    0.0000 C   0  0  0  0  0  0  0  0  0  0  0  0
    9.5076   -0.9796    0.0000 C   0  0  0  0  0  0  0  0  0  0  0  0
    8.7990   -4.6991    0.0000 C   0  0  0  0  0  0  0  0  0  0  0  0
   12.3639   -0.8561    0.0000 Cl  0  0  0  0  0  0  0  0  0  0  0  0
  1  2  1  0  0  0  0
  1  3  1  0  0  0  0
  4  2  1  0  0  0  0
  4  3  1  0  0  0  0
  5  6  1  0  0  0  0
  5  9  2  0  0  0  0
  6 19  2  0  0  0  0
  7  5  1  0  0  0  0
  8  9  1  0  0  0  0
  8 21  1  0  0  0  0
  9 15  1  0  0  0  0
 10 11  2  0  0  0  0
 10 12  1  0  0  0  0
 11 23  1  0  0  0  0
 12 36  2  0  0  0  0
 13 14  2  0  0  0  0
 14 22  1  0  0  0  0
 14 11  1  0  0  0  0
 15 17  2  0  0  0  0
 16 15  1  0  0  0  0
 17 18  1  0  0  0  0
 19 17  1  0  0  0  0
 20  6  1  0  0  0  0
 20 38  1  0  0  0  0
 22 21  2  0  0  0  0
 23  8  2  0  0  0  0
 24 25  2  0  0  0  0
 25  2  1  0  0  0  0
 26 25  1  1  0  0  0
 26 27  1  0  0  0  0
 27 28  1  0  0  0  0
 29 28  1  0  0  0  0
 29 30  1  1  0  0  0
 29 31  1  0  0  0  0
 26 31  1  0  0  0  0
 32 33  2  0  0  0  0
 32 37  1  0  0  0  0
 34 33  1  0  0  0  0
 34 39  1  0  0  0  0
 35 34  2  0  0  0  0
 36 30  1  0  0  0  0
 36 13  1  0  0  0  0
 37 18  1  0  0  0  0
M  END
> <ID>
SCHEMBL21150642

> <InChIKey>
TUWLFZUZBZGLHW-CCJIBRKGSA-N

> <MW>
590.89

> <Series_Name>
Series_15

$$$$
SCHEMBL21150643
  Mrv1719007191900032D 0   0.00000     0.00000     0

 37 40  0  0  1  0              1 V2000 
    8.9725   -3.8761    0.0000 C   0  0  0  0  0  0  0  0  0  0  0  0
    9.6833   -4.2771    0.0000 C   0  0  0  0  0  0  0  0  0  0  0  0
    8.1338   -4.2714    0.0000 Cl  0  0  0  0  0  0  0  0  0  0  0  0
    8.9736   -3.0458    0.0000 C   0  0  0  0  0  0  0  0  0  0  0  0
    8.2508   -2.6413    0.0000 C   0  0  0  0  0  0  0  0  0  0  0  0
    7.5386   -3.0516    0.0000 C   0  0  0  0  0  0  0  0  0  0  0  0
    6.8280   -2.6417    0.0000 C   0  0  0  0  0  0  0  0  0  0  0  0
    6.1078   -3.0514    0.0000 C   0  0  0  0  0  0  0  0  0  0  0  0
    5.3940   -2.6286    0.0000 N   0  0  0  0  0  0  0  0  0  0  0  0
    6.7843   -1.8513    0.0000 C   0  0  0  0  0  0  0  0  0  0  0  0
    7.5349   -1.4006    0.0000 C   0  0  0  0  0  0  0  0  0  0  0  0
    8.2515   -1.8213    0.0000 C   0  0  0  0  0  0  0  0  0  0  0  0
    9.6796   -2.6386    0.0000 C   0  0  0  0  0  0  0  0  0  0  0  0
    9.7748   -1.8099    0.0000 Cl  0  0  0  0  0  0  0  0  0  0  0  0
   10.3959   -3.0520    0.0000 C   0  0  0  0  0  0  0  0  0  0  0  0
   11.0768   -2.6286    0.0000 O   0  0  0  0  0  0  0  0  0  0  0  0
   10.3996   -3.8608    0.0000 C   0  0  0  0  0  0  0  0  0  0  0  0
    9.6637   -5.0902    0.0000 O   0  0  0  0  0  0  0  0  0  0  0  0
    2.6590   -2.0816    0.0000 N   0  0  0  0  0  0  0  0  0  0  0  0
    3.0841   -2.8131    0.0000 C   0  0  1  0  0  0  0  0  0  0  0  0
    3.8736   -2.6298    0.0000 C   0  0  0  0  0  0  0  0  0  0  0  0
    3.2168   -1.4776    0.0000 C   0  0  0  0  0  0  0  0  0  0  0  0
    3.9734   -1.8066    0.0000 C   0  0  1  0  0  0  0  0  0  0  0  0
    4.6571   -1.2155    0.0000 N   0  0  0  0  0  0  0  0  0  0  0  0
    2.9210   -3.5874    0.0000 C   0  0  0  0  0  0  0  0  0  0  0  0
    3.6011   -4.1633    0.0000 N   0  0  0  0  0  0  0  0  0  0  0  0
    5.3963   -1.8122    0.0000 C   0  0  0  0  0  0  0  0  0  0  0  0
    6.1082   -1.3827    0.0000 N   0  0  0  0  0  0  0  0  0  0  0  0
    1.2763   -2.4463    0.0000 O   0  0  0  0  0  0  0  0  0  0  0  0
    1.8771   -1.8566    0.0000 C   0  0  0  0  0  0  0  0  0  0  0  0
    1.6410   -1.0636    0.0000 O   0  0  0  0  0  0  0  0  0  0  0  0
    0.8904   -0.8720    0.0000 C   0  0  0  0  0  0  0  0  0  0  0  0
    0.0835   -0.6516    0.0000 C   0  0  0  0  0  0  0  0  0  0  0  0
    0.6764   -0.1056    0.0000 C   0  0  0  0  0  0  0  0  0  0  0  0
    0.2811   -1.4511    0.0000 C   0  0  0  0  0  0  0  0  0  0  0  0
   10.3684   -5.5004    0.0000 C   0  0  0  0  0  0  0  0  0  0  0  0
   11.8054   -3.0397    0.0000 C   0  0  0  0  0  0  0  0  0  0  0  0
  1  2  1  0  0  0  0
  1  4  2  0  0  0  0
  2 17  2  0  0  0  0
  3  1  1  0  0  0  0
  4  5  1  0  0  0  0
  4 13  1  0  0  0  0
  6  5  2  0  0  0  0
  7  6  1  0  0  0  0
  8  7  2  0  0  0  0
  8  9  1  0  0  0  0
  9 27  2  0  0  0  0
 10 11  1  0  0  0  0
 10  7  1  0  0  0  0
 11 12  2  0  0  0  0
 12  5  1  0  0  0  0
 13 15  2  0  0  0  0
 14 13  1  0  0  0  0
 15 16  1  0  0  0  0
 16 37  1  0  0  0  0
 17 15  1  0  0  0  0
 18  2  1  0  0  0  0
 18 36  1  0  0  0  0
 20 19  1  0  0  0  0
 20 21  1  0  0  0  0
 20 25  1  1  0  0  0
 22 19  1  0  0  0  0
 23 22  1  0  0  0  0
 23 24  1  1  0  0  0
 23 21  1  0  0  0  0
 26 25  1  0  0  0  0
 27 24  1  0  0  0  0
 27 28  1  0  0  0  0
 28 10  2  0  0  0  0
 29 30  2  0  0  0  0
 30 31  1  0  0  0  0
 30 19  1  0  0  0  0
 32 33  1  0  0  0  0
 32 31  1  0  0  0  0
 32 35  1  0  0  0  0
 34 32  1  0  0  0  0
M  END
> <ID>
SCHEMBL21150643

> <InChIKey>
ZZBXTJIAYGARAO-IRXDYDNUSA-N

> <MW>
548.47

> <Series_Name>
Series_15

$$$$
SCHEMBL21150646
  Mrv1719007191900042D 0   0.00000     0.00000     0

 36 39  0  0  0  0              1 V2000 
    0.9051   -7.8363    0.0000 C   0  0  0  0  0  0  0  0  0  0  0  0
    0.3100   -8.3943    0.0000 C   0  0  0  0  0  0  0  0  0  0  0  0
    0.3720   -9.1940    0.0000 O   0  0  0  0  0  0  0  0  0  0  0  0
    8.9895   -8.5431    0.0000 Cl  0  0  0  0  0  0  0  0  0  0  0  0
   11.0850   -9.7830    0.0000 C   0  0  0  0  0  0  0  0  0  0  0  0
    1.1035  -11.3205    0.0000 C   0  0  0  0  0  0  0  0  0  0  0  0
    7.3838  -11.0230    0.0000 Cl  0  0  0  0  0  0  0  0  0  0  0  0
    9.6342  -12.2505    0.0000 C   0  0  0  0  0  0  0  0  0  0  0  0
    1.1284   -8.6206    0.0000 C   0  0  0  0  0  0  0  0  0  0  0  0
    7.5140   -9.3656    0.0000 C   0  0  0  0  0  0  0  0  0  0  0  0
    7.5140   -8.5555    0.0000 C   0  0  0  0  0  0  0  0  0  0  0  0
    6.8196   -8.1463    0.0000 C   0  0  0  0  0  0  0  0  0  0  0  0
    6.0757   -8.5514    0.0000 C   0  0  0  0  0  0  0  0  0  0  0  0
    3.2032   -8.5431    0.0000 C   0  0  2  0  0  0  0  0  0  0  0  0
    2.4550   -8.2083    0.0000 C   0  0  0  0  0  0  0  0  0  0  0  0
    1.9012   -8.8242    0.0000 C   0  0  0  0  0  0  0  0  0  0  0  0
    4.6415   -8.5431    0.0000 C   0  0  0  0  0  0  0  0  0  0  0  0
    3.1246   -9.3614    0.0000 C   0  0  0  0  0  0  0  0  0  0  0  0
    6.0757   -9.3656    0.0000 C   0  0  0  0  0  0  0  0  0  0  0  0
    8.9316   -9.3656    0.0000 C   0  0  0  0  0  0  0  0  0  0  0  0
    8.2207   -9.7912    0.0000 C   0  0  0  0  0  0  0  0  0  0  0  0
    6.7948   -9.7830    0.0000 C   0  0  0  0  0  0  0  0  0  0  0  0
    5.3689   -9.7830    0.0000 C   0  0  0  0  0  0  0  0  0  0  0  0
    9.6508   -9.7789    0.0000 C   0  0  0  0  0  0  0  0  0  0  0  0
    9.6591  -10.6014    0.0000 C   0  0  0  0  0  0  0  0  0  0  0  0
    8.9399  -11.0313    0.0000 C   0  0  0  0  0  0  0  0  0  0  0  0
    8.2207  -10.6055    0.0000 C   0  0  0  0  0  0  0  0  0  0  0  0
    1.3020  -10.5642    0.0000 C   0  0  0  0  0  0  0  0  0  0  0  0
    2.0935  -10.3265    0.0000 C   0  0  0  0  0  0  0  0  0  0  0  0
    2.6783  -10.9300    0.0000 O   0  0  0  0  0  0  0  0  0  0  0  0
    8.9274  -11.8599    0.0000 O   0  0  0  0  0  0  0  0  0  0  0  0
    3.9244   -8.1277    0.0000 N   0  0  0  0  0  0  0  0  0  0  0  0
    5.3627   -8.1277    0.0000 N   0  0  0  0  0  0  0  0  0  0  0  0
    4.6560   -9.3676    0.0000 N   0  0  0  0  0  0  0  0  0  0  0  0
   10.3659   -9.3800    0.0000 O   0  0  0  0  0  0  0  0  0  0  0  0
    2.3249   -9.5412    0.0000 N   0  0  0  0  0  0  0  0  0  0  0  0
  1  9  1  0  0  0  0
  2  9  1  0  0  0  0
  3  9  1  0  0  0  0
 10 11  1  0  0  0  0
 11 12  2  0  0  0  0
 12 13  1  0  0  0  0
 14 15  1  0  0  0  0
 15 16  1  0  0  0  0
  9 16  1  0  0  0  0
 14 18  1  0  0  0  0
 13 19  1  0  0  0  0
  4 20  1  0  0  0  0
 10 21  1  0  0  0  0
 20 21  2  0  0  0  0
 10 22  2  0  0  0  0
 19 22  1  0  0  0  0
 19 23  2  0  0  0  0
 20 24  1  0  0  0  0
 24 25  2  0  0  0  0
 25 26  1  0  0  0  0
 21 27  1  0  0  0  0
  7 27  1  0  0  0  0
 26 27  2  0  0  0  0
  6 28  2  0  0  0  0
 28 29  1  0  0  0  0
 29 30  2  0  0  0  0
  8 31  1  0  0  0  0
 26 31  1  0  0  0  0
 14 32  1  1  0  0  0
 17 32  1  0  0  0  0
 13 33  2  0  0  0  0
 17 33  1  0  0  0  0
 17 34  2  0  0  0  0
 23 34  1  0  0  0  0
  5 35  1  0  0  0  0
 24 35  1  0  0  0  0
 16 36  1  0  0  0  0
 18 36  1  0  0  0  0
 29 36  1  0  0  0  0
M  END
> <ID>
SCHEMBL21150646

> <InChIKey>
OYWQQQRPEKWQJK-QRIPLOBPSA-N

> <MW>
531.43

> <Series_Name>
Series_15

$$$$
SCHEMBL21150653
  Mrv1719007191900052D 0   0.00000     0.00000     0

 32 35  0  0  0  0              1 V2000 
    0.9051   -7.8360    0.0000 C   0  0  0  0  0  0  0  0  0  0  0  0
    0.3100   -8.3939    0.0000 C   0  0  0  0  0  0  0  0  0  0  0  0
    0.3719   -9.1937    0.0000 O   0  0  0  0  0  0  0  0  0  0  0  0
    8.9891   -8.5427    0.0000 Cl  0  0  0  0  0  0  0  0  0  0  0  0
   11.0845   -9.7826    0.0000 C   0  0  0  0  0  0  0  0  0  0  0  0
    7.3834  -11.0225    0.0000 Cl  0  0  0  0  0  0  0  0  0  0  0  0
    9.6338  -12.2500    0.0000 C   0  0  0  0  0  0  0  0  0  0  0  0
    1.1283   -8.6202    0.0000 C   0  0  0  0  0  0  0  0  0  0  0  0
    7.5136   -9.3652    0.0000 C   0  0  0  0  0  0  0  0  0  0  0  0
    7.5136   -8.5551    0.0000 C   0  0  0  0  0  0  0  0  0  0  0  0
    6.8193   -8.1459    0.0000 C   0  0  0  0  0  0  0  0  0  0  0  0
    6.0754   -8.5511    0.0000 C   0  0  0  0  0  0  0  0  0  0  0  0
    3.2030   -8.5427    0.0000 C   0  0  2  0  0  0  0  0  0  0  0  0
    2.4549   -8.2079    0.0000 C   0  0  0  0  0  0  0  0  0  0  0  0
    1.9012   -8.8238    0.0000 C   0  0  0  0  0  0  0  0  0  0  0  0
    4.6413   -8.5427    0.0000 C   0  0  0  0  0  0  0  0  0  0  0  0
    3.1245   -9.3610    0.0000 C   0  0  0  0  0  0  0  0  0  0  0  0
    6.0754   -9.3652    0.0000 C   0  0  0  0  0  0  0  0  0  0  0  0
    8.9312   -9.3652    0.0000 C   0  0  0  0  0  0  0  0  0  0  0  0
    8.2203   -9.7909    0.0000 C   0  0  0  0  0  0  0  0  0  0  0  0
    6.7945   -9.7826    0.0000 C   0  0  0  0  0  0  0  0  0  0  0  0
    5.3686   -9.7826    0.0000 C   0  0  0  0  0  0  0  0  0  0  0  0
    9.6504   -9.7785    0.0000 C   0  0  0  0  0  0  0  0  0  0  0  0
    9.6586  -10.6009    0.0000 C   0  0  0  0  0  0  0  0  0  0  0  0
    8.9395  -11.0308    0.0000 C   0  0  0  0  0  0  0  0  0  0  0  0
    8.2203  -10.6050    0.0000 C   0  0  0  0  0  0  0  0  0  0  0  0
    8.9271  -11.8595    0.0000 O   0  0  0  0  0  0  0  0  0  0  0  0
    2.1946   -9.5408    0.0000 N   0  0  0  0  0  0  0  0  0  0  0  0
    3.9242   -8.1274    0.0000 N   0  0  0  0  0  0  0  0  0  0  0  0
    5.3625   -8.1274    0.0000 N   0  0  0  0  0  0  0  0  0  0  0  0
   10.3653   -9.3797    0.0000 O   0  0  0  0  0  0  0  0  0  0  0  0
    4.6557   -9.3672    0.0000 N   0  0  0  0  0  0  0  0  0  0  0  0
  1  8  1  0  0  0  0
  2  8  1  0  0  0  0
  3  8  1  0  0  0  0
  9 10  1  0  0  0  0
 10 11  2  0  0  0  0
 11 12  1  0  0  0  0
 13 14  1  0  0  0  0
 14 15  1  0  0  0  0
  8 15  1  0  0  0  0
 13 17  1  0  0  0  0
 12 18  1  0  0  0  0
  4 19  1  0  0  0  0
  9 20  1  0  0  0  0
 19 20  2  0  0  0  0
  9 21  2  0  0  0  0
 18 21  1  0  0  0  0
 18 22  2  0  0  0  0
 19 23  1  0  0  0  0
 23 24  2  0  0  0  0
 24 25  1  0  0  0  0
 20 26  1  0  0  0  0
  6 26  1  0  0  0  0
 25 26  2  0  0  0  0
  7 27  1  0  0  0  0
 25 27  1  0  0  0  0
 15 28  1  0  0  0  0
 17 28  1  0  0  0  0
 13 29  1  1  0  0  0
 16 29  1  0  0  0  0
 12 30  2  0  0  0  0
 16 30  1  0  0  0  0
  5 31  1  0  0  0  0
 23 31  1  0  0  0  0
 16 32  2  0  0  0  0
 22 32  1  0  0  0  0
M  END
> <ID>
SCHEMBL21150653

> <InChIKey>
PYXOEXUBCOOLGF-IKJXHCRLSA-N

> <MW>
477.39

> <Series_Name>
Series_15

$$$$
SCHEMBL21150654
  Mrv1719007191900052D 0   0.00000     0.00000     0

 39 42  0  0  1  0              1 V2000 
    8.9352   -4.2407    0.0000 O   0  0  0  0  0  0  0  0  0  0  0  0
    9.6838   -4.6862    0.0000 C   0  0  0  0  0  0  0  0  0  0  0  0
    8.2472   -3.0195    0.0000 C   0  0  0  0  0  0  0  0  0  0  0  0
    8.9582   -3.4298    0.0000 C   0  0  0  0  0  0  0  0  0  0  0  0
    7.4079   -3.4197    0.0000 Cl  0  0  0  0  0  0  0  0  0  0  0  0
    6.8007   -2.1919    0.0000 C   0  0  0  0  0  0  0  0  0  0  0  0
    7.5280   -1.7764    0.0000 C   0  0  0  0  0  0  0  0  0  0  0  0
    6.0903   -1.7792    0.0000 C   0  0  0  0  0  0  0  0  0  0  0  0
    5.3682   -2.1966    0.0000 C   0  0  0  0  0  0  0  0  0  0  0  0
    4.6520   -1.7587    0.0000 N   0  0  0  0  0  0  0  0  0  0  0  0
    5.3611   -0.5248    0.0000 N   0  0  0  0  0  0  0  0  0  0  0  0
    6.0925   -0.9466    0.0000 C   0  0  0  0  0  0  0  0  0  0  0  0
    6.7987   -0.5361    0.0000 C   0  0  0  0  0  0  0  0  0  0  0  0
    7.5222   -0.9468    0.0000 C   0  0  0  0  0  0  0  0  0  0  0  0
    8.2461   -2.1839    0.0000 C   0  0  0  0  0  0  0  0  0  0  0  0
    8.9634   -1.7763    0.0000 C   0  0  0  0  0  0  0  0  0  0  0  0
    9.0390   -0.9377    0.0000 Cl  0  0  0  0  0  0  0  0  0  0  0  0
    9.6797   -2.1855    0.0000 C   0  0  0  0  0  0  0  0  0  0  0  0
   10.3677   -1.7587    0.0000 O   0  0  0  0  0  0  0  0  0  0  0  0
    9.6786   -3.0079    0.0000 C   0  0  0  0  0  0  0  0  0  0  0  0
    2.3118   -1.9288    0.0000 N   0  0  0  0  0  0  0  0  0  0  0  0
    1.9492   -2.3383    0.0000 C   0  0  0  0  0  0  0  0  0  0  0  0
    1.4133   -2.2289    0.0000 O   0  0  0  0  0  0  0  0  0  0  0  0
    2.1224   -2.8570    0.0000 O   0  0  0  0  0  0  0  0  0  0  0  0
    2.6583   -2.9664    0.0000 C   0  0  0  0  0  0  0  0  0  0  0  0
    3.1771   -2.7932    0.0000 C   0  0  0  0  0  0  0  0  0  0  0  0
    2.7677   -2.4305    0.0000 C   0  0  0  0  0  0  0  0  0  0  0  0
    2.8316   -3.4851    0.0000 C   0  0  0  0  0  0  0  0  0  0  0  0
   11.1163   -2.2042    0.0000 C   0  0  0  0  0  0  0  0  0  0  0  0
    1.9117   -1.2208    0.0000 C   0  0  1  0  0  0  0  0  0  0  0  0
    0.3546   -1.5885    0.0000 O   0  0  0  0  0  0  0  0  0  0  0  0
    1.0957   -0.9799    0.0000 C   0  0  0  0  0  0  0  0  0  0  0  0
    0.3049   -0.7897    0.0000 C   0  0  0  0  0  0  0  0  0  0  0  0
    0.9140   -0.2435    0.0000 C   0  0  0  0  0  0  0  0  0  0  0  0
    2.4646   -0.6116    0.0000 C   0  0  0  0  0  0  0  0  0  0  0  0
    3.2230   -0.9412    0.0000 C   0  0  1  0  0  0  0  0  0  0  0  0
    3.9074   -0.3617    0.0000 N   0  0  0  0  0  0  0  0  0  0  0  0
    3.1255   -1.7697    0.0000 C   0  0  0  0  0  0  0  0  0  0  0  0
    4.6596   -0.9460    0.0000 C   0  0  0  0  0  0  0  0  0  0  0  0
  1  2  1  0  0  0  0
  3  4  2  0  0  0  0
  3 15  1  0  0  0  0
  4  1  1  0  0  0  0
  4 20  1  0  0  0  0
  5  3  1  0  0  0  0
  6  7  2  0  0  0  0
  7 15  1  0  0  0  0
  8  6  1  0  0  0  0
  9  8  2  0  0  0  0
  9 10  1  0  0  0  0
 10 39  2  0  0  0  0
 11 12  2  0  0  0  0
 12 13  1  0  0  0  0
 12  8  1  0  0  0  0
 13 14  2  0  0  0  0
 14  7  1  0  0  0  0
 15 16  2  0  0  0  0
 16 17  1  0  0  0  0
 18 16  1  0  0  0  0
 18 19  1  0  0  0  0
 19 29  1  0  0  0  0
 20 18  2  0  0  0  0
 21 22  1  0  0  0  0
 22 23  2  0  0  0  0
 22 24  1  0  0  0  0
 24 25  1  0  0  0  0
 25 26  1  0  0  0  0
 25 27  1  0  0  0  0
 25 28  1  0  0  0  0
 30 21  1  0  0  0  0
 30 32  1  1  0  0  0
 30 35  1  0  0  0  0
 31 32  1  0  0  0  0
 32 33  1  0  0  0  0
 32 34  1  0  0  0  0
 36 35  1  0  0  0  0
 36 37  1  1  0  0  0
 36 38  1  0  0  0  0
 38 21  1  0  0  0  0
 39 37  1  0  0  0  0
 39 11  1  0  0  0  0
M  END
> <ID>
SCHEMBL21150654

> <InChIKey>
PJYITFHVGDKFTG-DYESRHJHSA-N

> <MW>
577.5

> <Series_Name>
Series_15

$$$$
SCHEMBL21150656
  Mrv1719007191900052D 0   0.00000     0.00000     0

 39 43  0  0  1  0              1 V2000 
    2.7448   -3.2765    0.0000 N   0  0  0  0  0  0  0  0  0  0  0  0
    2.5048   -4.0622    0.0000 C   0  0  0  0  0  0  0  0  0  0  0  0
    3.8208   -4.0649    0.0000 C   0  0  0  0  0  0  0  0  0  0  0  0
    3.5729   -3.2976    0.0000 C   0  0  0  0  0  0  0  0  0  0  0  0
    3.1519   -4.5539    0.0000 C   0  0  0  0  0  0  0  0  0  0  0  0
    8.4857   -2.9417    0.0000 C   0  0  0  0  0  0  0  0  0  0  0  0
    9.2027   -3.3528    0.0000 C   0  0  0  0  0  0  0  0  0  0  0  0
    7.6589   -3.3533    0.0000 Cl  0  0  0  0  0  0  0  0  0  0  0  0
    7.7735   -1.7106    0.0000 C   0  0  0  0  0  0  0  0  0  0  0  0
    8.4883   -2.1169    0.0000 C   0  0  0  0  0  0  0  0  0  0  0  0
    6.3495   -1.7060    0.0000 C   0  0  0  0  0  0  0  0  0  0  0  0
    7.0527   -2.1170    0.0000 C   0  0  0  0  0  0  0  0  0  0  0  0
    5.6288   -2.1199    0.0000 C   0  0  0  0  0  0  0  0  0  0  0  0
    4.9085   -1.6939    0.0000 N   0  0  0  0  0  0  0  0  0  0  0  0
    5.6256   -0.4574    0.0000 N   0  0  0  0  0  0  0  0  0  0  0  0
    6.3491   -0.8810    0.0000 C   0  0  0  0  0  0  0  0  0  0  0  0
    7.0506   -0.4757    0.0000 C   0  0  0  0  0  0  0  0  0  0  0  0
    7.7692   -0.8772    0.0000 C   0  0  0  0  0  0  0  0  0  0  0  0
    9.2036   -1.7025    0.0000 C   0  0  0  0  0  0  0  0  0  0  0  0
    9.2539   -0.8806    0.0000 Cl  0  0  0  0  0  0  0  0  0  0  0  0
    9.9203   -2.1163    0.0000 C   0  0  0  0  0  0  0  0  0  0  0  0
   10.6083   -1.6939    0.0000 O   0  0  0  0  0  0  0  0  0  0  0  0
    9.1865   -4.1667    0.0000 O   0  0  0  0  0  0  0  0  0  0  0  0
    9.9155   -2.9331    0.0000 C   0  0  0  0  0  0  0  0  0  0  0  0
    1.4219   -2.6954    0.0000 O   0  0  0  0  0  0  0  0  0  0  0  0
    2.2866   -2.6254    0.0000 C   0  0  0  0  0  0  0  0  0  0  0  0
    2.6007   -1.8693    0.0000 C   0  0  1  0  0  0  0  0  0  0  0  0
    2.1760   -1.1499    0.0000 N   0  0  0  0  0  0  0  0  0  0  0  0
    3.3907   -1.7021    0.0000 C   0  0  0  0  0  0  0  0  0  0  0  0
    2.7333   -0.5511    0.0000 C   0  0  0  0  0  0  0  0  0  0  0  0
    3.4940   -0.8809    0.0000 C   0  0  1  0  0  0  0  0  0  0  0  0
    4.1852   -0.3153    0.0000 N   0  0  0  0  0  0  0  0  0  0  0  0
    1.3754   -1.0759    0.0000 C   0  0  0  0  0  0  0  0  0  0  0  0
    1.0139   -0.3091    0.0000 O   0  0  0  0  0  0  0  0  0  0  0  0
    0.8817   -1.7356    0.0000 C   0  0  0  0  0  0  0  0  0  0  0  0
    0.0557   -1.7034    0.0000 C   0  0  0  0  0  0  0  0  0  0  0  0
    4.9331   -0.8739    0.0000 C   0  0  0  0  0  0  0  0  0  0  0  0
   10.6260   -0.8841    0.0000 C   0  0  0  0  0  0  0  0  0  0  0  0
    9.8946   -4.5746    0.0000 C   0  0  0  0  0  0  0  0  0  0  0  0
  1  2  1  0  0  0  0
  3  4  1  0  0  0  0
  3  5  1  0  0  0  0
  4  1  1  0  0  0  0
  5  2  1  0  0  0  0
  6  7  1  0  0  0  0
  6 10  2  0  0  0  0
  7 24  2  0  0  0  0
  8  6  1  0  0  0  0
  9 10  1  0  0  0  0
  9 18  1  0  0  0  0
 10 19  1  0  0  0  0
 11 12  1  0  0  0  0
 12  9  2  0  0  0  0
 13 11  2  0  0  0  0
 13 14  1  0  0  0  0
 14 37  2  0  0  0  0
 15 16  2  0  0  0  0
 16 17  1  0  0  0  0
 16 11  1  0  0  0  0
 17 18  2  0  0  0  0
 19 21  2  0  0  0  0
 20 19  1  0  0  0  0
 21 22  1  0  0  0  0
 23  7  1  0  0  0  0
 23 39  1  0  0  0  0
 24 21  1  0  0  0  0
 25 26  2  0  0  0  0
 26  1  1  0  0  0  0
 27 26  1  1  0  0  0
 27 28  1  0  0  0  0
 27 29  1  0  0  0  0
 28 33  1  0  0  0  0
 30 28  1  0  0  0  0
 31 30  1  0  0  0  0
 31 32  1  1  0  0  0
 31 29  1  0  0  0  0
 33 34  1  0  0  0  0
 35 33  1  0  0  0  0
 36 35  2  0  0  0  0
 37 32  1  0  0  0  0
 37 15  1  0  0  0  0
 38 22  1  0  0  0  0
M  END
> <ID>
SCHEMBL21150656

> <InChIKey>
SXNAQWJZICLAOJ-ZTVINCFESA-N

> <MW>
572.49

> <Series_Name>
Series_15

$$$$
SCHEMBL21150657
  Mrv1719007191900052D 0   0.00000     0.00000     0

 34 37  0  0  0  0              1 V2000 
    1.1632   -0.1176    0.0000 O   0  0  0  0  0  0  0  0  0  0  0  0
    0.0124   -1.2869    0.0000 C   0  0  0  0  0  0  0  0  0  0  0  0
    2.5616   -3.3350    0.0000 O   0  0  0  0  0  0  0  0  0  0  0  0
   10.6670   -1.1385    0.0000 C   0  0  0  0  0  0  0  0  0  0  0  0
    9.2810   -1.1261    0.0000 Cl  0  0  0  0  0  0  0  0  0  0  0  0
    7.6785   -3.6010    0.0000 Cl  0  0  0  0  0  0  0  0  0  0  0  0
    9.9369   -4.8385    0.0000 C   0  0  0  0  0  0  0  0  0  0  0  0
    1.3447   -0.9364    0.0000 C   0  0  0  0  0  0  0  0  0  0  0  0
    3.5144   -1.1220    0.0000 C   0  0  2  0  0  0  0  0  0  0  0  0
    2.8586   -0.6435    0.0000 C   0  0  0  0  0  0  0  0  0  0  0  0
    7.8084   -1.9346    0.0000 C   0  0  0  0  0  0  0  0  0  0  0  0
    7.8084   -1.1385    0.0000 C   0  0  0  0  0  0  0  0  0  0  0  0
    7.1278   -0.7301    0.0000 C   0  0  0  0  0  0  0  0  0  0  0  0
    6.3729   -1.1220    0.0000 C   0  0  0  0  0  0  0  0  0  0  0  0
    4.9416   -1.1220    0.0000 C   0  0  0  0  0  0  0  0  0  0  0  0
    0.7920   -1.4973    0.0000 C   0  0  0  0  0  0  0  0  0  0  0  0
    3.2422   -1.9057    0.0000 C   0  0  0  0  0  0  0  0  0  0  0  0
    2.4337   -1.8974    0.0000 C   0  0  1  0  0  0  0  0  0  0  0  0
    2.0542   -2.5616    0.0000 C   0  0  0  0  0  0  0  0  0  0  0  0
    6.3729   -1.9470    0.0000 C   0  0  0  0  0  0  0  0  0  0  0  0
    9.2232   -1.9346    0.0000 C   0  0  0  0  0  0  0  0  0  0  0  0
    8.5097   -2.3677    0.0000 C   0  0  0  0  0  0  0  0  0  0  0  0
    7.0907   -2.3636    0.0000 C   0  0  0  0  0  0  0  0  0  0  0  0
    9.9493   -2.3594    0.0000 C   0  0  0  0  0  0  0  0  0  0  0  0
    8.5138   -3.1844    0.0000 C   0  0  0  0  0  0  0  0  0  0  0  0
    5.6552   -2.3636    0.0000 C   0  0  0  0  0  0  0  0  0  0  0  0
    9.9493   -3.1679    0.0000 C   0  0  0  0  0  0  0  0  0  0  0  0
    9.2315   -3.5969    0.0000 C   0  0  0  0  0  0  0  0  0  0  0  0
    4.2259   -0.7115    0.0000 N   0  0  0  0  0  0  0  0  0  0  0  0
    5.6614   -0.7115    0.0000 N   0  0  0  0  0  0  0  0  0  0  0  0
    9.2191   -4.4239    0.0000 O   0  0  0  0  0  0  0  0  0  0  0  0
    2.1841   -1.1199    0.0000 N   0  0  0  0  0  0  0  0  0  0  0  0
   10.6546   -1.9490    0.0000 O   0  0  0  0  0  0  0  0  0  0  0  0
    4.9561   -1.9490    0.0000 N   0  0  0  0  0  0  0  0  0  0  0  0
  1  8  2  0  0  0  0
  9 10  1  0  0  0  0
 11 12  1  0  0  0  0
 12 13  2  0  0  0  0
 13 14  1  0  0  0  0
  8 16  1  0  0  0  0
  2 16  1  0  0  0  0
  9 17  1  0  0  0  0
 18 17  1  0  0  0  0
 18 19  1  1  0  0  0
  3 19  1  0  0  0  0
 14 20  1  0  0  0  0
  5 21  1  0  0  0  0
 11 22  1  0  0  0  0
 21 22  1  0  0  0  0
 11 23  2  0  0  0  0
 20 23  1  0  0  0  0
 21 24  2  0  0  0  0
 22 25  2  0  0  0  0
  6 25  1  0  0  0  0
 20 26  2  0  0  0  0
 24 27  1  0  0  0  0
 27 28  2  0  0  0  0
 25 28  1  0  0  0  0
  9 29  1  1  0  0  0
 15 29  1  0  0  0  0
 14 30  2  0  0  0  0
 15 30  1  0  0  0  0
  7 31  1  0  0  0  0
 28 31  1  0  0  0  0
  8 32  1  0  0  0  0
 10 32  1  0  0  0  0
 18 32  1  0  0  0  0
  4 33  1  0  0  0  0
 24 33  1  0  0  0  0
 15 34  2  0  0  0  0
 26 34  1  0  0  0  0
M  END
> <ID>
SCHEMBL21150657

> <InChIKey>
MJDKFSYVDRATJB-HOTGVXAUSA-N

> <MW>
505.4

> <Series_Name>
Series_15

$$$$
SCHEMBL21150660
  Mrv1719007191900052D 0   0.00000     0.00000     0

 33 37  0  0  1  0              1 V2000 
    8.5068   -2.9763    0.0000 C   0  0  0  0  0  0  0  0  0  0  0  0
    9.2265   -3.3821    0.0000 C   0  0  0  0  0  0  0  0  0  0  0  0
    7.6911   -3.3695    0.0000 Cl  0  0  0  0  0  0  0  0  0  0  0  0
    7.7974   -1.7339    0.0000 C   0  0  0  0  0  0  0  0  0  0  0  0
    8.5106   -2.1451    0.0000 C   0  0  0  0  0  0  0  0  0  0  0  0
    6.3740   -1.7328    0.0000 C   0  0  0  0  0  0  0  0  0  0  0  0
    7.0818   -2.1432    0.0000 C   0  0  0  0  0  0  0  0  0  0  0  0
    5.6549   -2.1374    0.0000 C   0  0  0  0  0  0  0  0  0  0  0  0
    4.9265   -1.7170    0.0000 N   0  0  0  0  0  0  0  0  0  0  0  0
    5.6397   -0.4755    0.0000 N   0  0  0  0  0  0  0  0  0  0  0  0
    6.3699   -0.9049    0.0000 C   0  0  0  0  0  0  0  0  0  0  0  0
    7.0785   -0.4917    0.0000 C   0  0  0  0  0  0  0  0  0  0  0  0
    7.7975   -0.9075    0.0000 C   0  0  0  0  0  0  0  0  0  0  0  0
    9.3090   -0.8996    0.0000 Cl  0  0  0  0  0  0  0  0  0  0  0  0
    9.2321   -1.7336    0.0000 C   0  0  0  0  0  0  0  0  0  0  0  0
    9.9385   -2.1423    0.0000 C   0  0  0  0  0  0  0  0  0  0  0  0
   10.6454   -1.7170    0.0000 O   0  0  0  0  0  0  0  0  0  0  0  0
    9.9347   -2.9718    0.0000 C   0  0  0  0  0  0  0  0  0  0  0  0
    9.2058   -4.2000    0.0000 O   0  0  0  0  0  0  0  0  0  0  0  0
    2.1925   -1.1755    0.0000 N   0  0  0  0  0  0  0  0  0  0  0  0
    2.6258   -1.8995    0.0000 C   0  0  0  0  0  0  0  0  0  0  0  0
    3.4085   -1.7212    0.0000 C   0  0  2  0  0  0  0  0  0  0  0  0
    2.7446   -0.5707    0.0000 C   0  0  1  0  0  0  0  0  0  0  0  0
    3.5060   -0.9025    0.0000 C   0  0  1  0  0  0  0  0  0  0  0  0
    4.1934   -0.3302    0.0000 N   0  0  0  0  0  0  0  0  0  0  0  0
    1.0302   -0.3302    0.0000 O   0  0  0  0  0  0  0  0  0  0  0  0
    1.3392   -1.1451    0.0000 C   0  0  0  0  0  0  0  0  0  0  0  0
    0.8917   -1.7671    0.0000 C   0  0  0  0  0  0  0  0  0  0  0  0
    0.0652   -1.6871    0.0000 C   0  0  0  0  0  0  0  0  0  0  0  0
    4.9364   -0.9062    0.0000 C   0  0  0  0  0  0  0  0  0  0  0  0
    9.9209   -4.6073    0.0000 C   0  0  0  0  0  0  0  0  0  0  0  0
   11.3868   -2.1611    0.0000 C   0  0  0  0  0  0  0  0  0  0  0  0
    2.8661   -1.2430    0.0000 C   0  0  0  0  0  0  0  0  0  0  0  0
  1  2  1  0  0  0  0
  1  5  2  0  0  0  0
  2 18  2  0  0  0  0
  3  1  1  0  0  0  0
  4  5  1  0  0  0  0
  4 13  1  0  0  0  0
  5 15  1  0  0  0  0
  6  7  1  0  0  0  0
  7  4  2  0  0  0  0
  8  9  1  0  0  0  0
  8  6  2  0  0  0  0
  9 30  2  0  0  0  0
 10 11  2  0  0  0  0
 11 12  1  0  0  0  0
 11  6  1  0  0  0  0
 12 13  2  0  0  0  0
 14 15  1  0  0  0  0
 15 16  2  0  0  0  0
 16 17  1  0  0  0  0
 17 32  1  0  0  0  0
 18 16  1  0  0  0  0
 19  2  1  0  0  0  0
 19 31  1  0  0  0  0
 20 21  1  0  0  0  0
 22 21  1  0  0  0  0
 22 33  1  6  0  0  0
 24 23  1  0  0  0  0
 23 33  1  6  0  0  0
 23 20  1  0  0  0  0
 24 25  1  1  0  0  0
 24 22  1  0  0  0  0
 26 27  2  0  0  0  0
 27 20  1  0  0  0  0
 28 27  1  0  0  0  0
 29 28  2  0  0  0  0
 30 25  1  0  0  0  0
 30 10  1  0  0  0  0
M  END
> <ID>
SCHEMBL21150660

> <InChIKey>
OSGKVHJMZVCUFK-SWHMAYCHSA-N

> <MW>
485.37

> <Series_Name>
Series_15

$$$$
SCHEMBL21150661
  Mrv1719007191900052D 0   0.00000     0.00000     0

 33 36  0  0  1  0              1 V2000 
    8.5041   -2.9644    0.0000 C   0  0  0  0  0  0  0  0  0  0  0  0
    9.2167   -3.3801    0.0000 C   0  0  0  0  0  0  0  0  0  0  0  0
    7.6845   -3.3666    0.0000 Cl  0  0  0  0  0  0  0  0  0  0  0  0
    8.5058   -2.1425    0.0000 C   0  0  0  0  0  0  0  0  0  0  0  0
    7.7953   -1.7316    0.0000 C   0  0  0  0  0  0  0  0  0  0  0  0
    7.0723   -2.1466    0.0000 C   0  0  0  0  0  0  0  0  0  0  0  0
    6.3599   -1.7270    0.0000 C   0  0  0  0  0  0  0  0  0  0  0  0
    5.6485   -2.1355    0.0000 C   0  0  0  0  0  0  0  0  0  0  0  0
    4.9223   -1.7155    0.0000 N   0  0  0  0  0  0  0  0  0  0  0  0
    5.6349   -0.4751    0.0000 N   0  0  0  0  0  0  0  0  0  0  0  0
    6.3649   -0.9032    0.0000 C   0  0  0  0  0  0  0  0  0  0  0  0
    7.0721   -0.4908    0.0000 C   0  0  0  0  0  0  0  0  0  0  0  0
    7.7939   -0.9099    0.0000 C   0  0  0  0  0  0  0  0  0  0  0  0
    9.3011   -0.8989    0.0000 Cl  0  0  0  0  0  0  0  0  0  0  0  0
    9.2229   -1.7315    0.0000 C   0  0  0  0  0  0  0  0  0  0  0  0
    9.9305   -2.1392    0.0000 C   0  0  0  0  0  0  0  0  0  0  0  0
   10.6364   -1.7155    0.0000 O   0  0  0  0  0  0  0  0  0  0  0  0
    9.1980   -4.1965    0.0000 O   0  0  0  0  0  0  0  0  0  0  0  0
    9.9271   -2.9524    0.0000 C   0  0  0  0  0  0  0  0  0  0  0  0
    2.6216   -1.8986    0.0000 C   0  0  0  0  0  0  0  0  0  0  0  0
    3.4123   -1.7244    0.0000 C   0  0  2  0  0  0  0  0  0  0  0  0
    2.7465   -0.5707    0.0000 C   0  0  0  0  0  0  0  0  0  0  0  0
    2.1906   -1.1613    0.0000 N   0  0  0  0  0  0  0  0  0  0  0  0
    3.5041   -0.8995    0.0000 C   0  0  1  0  0  0  0  0  0  0  0  0
    4.1899   -0.3299    0.0000 N   0  0  0  0  0  0  0  0  0  0  0  0
    1.0293   -0.3299    0.0000 O   0  0  0  0  0  0  0  0  0  0  0  0
    1.3344   -1.1478    0.0000 C   0  0  0  0  0  0  0  0  0  0  0  0
    0.8907   -1.7653    0.0000 C   0  0  0  0  0  0  0  0  0  0  0  0
    0.0654   -1.6853    0.0000 C   0  0  0  0  0  0  0  0  0  0  0  0
    4.9236   -0.9084    0.0000 C   0  0  0  0  0  0  0  0  0  0  0  0
    9.9211   -4.6059    0.0000 C   0  0  0  0  0  0  0  0  0  0  0  0
   11.3723   -2.1562    0.0000 C   0  0  0  0  0  0  0  0  0  0  0  0
    4.1437   -2.2698    0.0000 O   0  0  0  0  0  0  0  0  0  0  0  0
  1  2  1  0  0  0  0
  1  4  2  0  0  0  0
  2 19  2  0  0  0  0
  3  1  1  0  0  0  0
  4  5  1  0  0  0  0
  4 15  1  0  0  0  0
  6  5  2  0  0  0  0
  7  6  1  0  0  0  0
  8  9  1  0  0  0  0
  8  7  2  0  0  0  0
  9 30  2  0  0  0  0
 10 11  2  0  0  0  0
 11 12  1  0  0  0  0
 11  7  1  0  0  0  0
 12 13  2  0  0  0  0
 13  5  1  0  0  0  0
 14 15  1  0  0  0  0
 15 16  2  0  0  0  0
 16 17  1  0  0  0  0
 17 32  1  0  0  0  0
 18  2  1  0  0  0  0
 18 31  1  0  0  0  0
 19 16  1  0  0  0  0
 21 20  1  0  0  0  0
 20 23  1  0  0  0  0
 21 33  1  6  0  0  0
 22 23  1  0  0  0  0
 24 22  1  0  0  0  0
 24 25  1  1  0  0  0
 21 24  1  0  0  0  0
 26 27  2  0  0  0  0
 27 23  1  0  0  0  0
 28 27  1  0  0  0  0
 29 28  2  0  0  0  0
 30 25  1  0  0  0  0
 30 10  1  0  0  0  0
M  END
> <ID>
SCHEMBL21150661

> <InChIKey>
VNWJYUIVLDNYKY-HZPDHXFCSA-N

> <MW>
489.35

> <Series_Name>
Series_15

$$$$
SCHEMBL21150671
  Mrv1719007191900072D 0   0.00000     0.00000     0

 35 38  0  0  1  0              1 V2000 
    8.5035   -2.9674    0.0000 C   0  0  0  0  0  0  0  0  0  0  0  0
    9.2226   -3.3784    0.0000 C   0  0  0  0  0  0  0  0  0  0  0  0
    7.6873   -3.3678    0.0000 Cl  0  0  0  0  0  0  0  0  0  0  0  0
    7.7968   -1.7259    0.0000 C   0  0  0  0  0  0  0  0  0  0  0  0
    8.5074   -2.1393    0.0000 C   0  0  0  0  0  0  0  0  0  0  0  0
    5.6456   -2.1439    0.0000 C   0  0  0  0  0  0  0  0  0  0  0  0
    6.3711   -1.7299    0.0000 C   0  0  0  0  0  0  0  0  0  0  0  0
    4.9241   -1.7162    0.0000 N   0  0  0  0  0  0  0  0  0  0  0  0
    5.6369   -0.4752    0.0000 N   0  0  0  0  0  0  0  0  0  0  0  0
    6.3649   -0.9004    0.0000 C   0  0  0  0  0  0  0  0  0  0  0  0
    7.0806   -0.4967    0.0000 C   0  0  0  0  0  0  0  0  0  0  0  0
    7.7943   -0.9113    0.0000 C   0  0  0  0  0  0  0  0  0  0  0  0
    9.1999   -1.7380    0.0000 C   0  0  0  0  0  0  0  0  0  0  0  0
    9.3044   -0.8992    0.0000 Cl  0  0  0  0  0  0  0  0  0  0  0  0
    9.9342   -2.1415    0.0000 C   0  0  0  0  0  0  0  0  0  0  0  0
   10.6402   -1.7162    0.0000 O   0  0  0  0  0  0  0  0  0  0  0  0
    9.9356   -2.9559    0.0000 C   0  0  0  0  0  0  0  0  0  0  0  0
    9.2013   -4.1848    0.0000 O   0  0  0  0  0  0  0  0  0  0  0  0
    7.0757   -2.1298    0.0000 C   0  0  0  0  0  0  0  0  0  0  0  0
    1.4389   -2.7194    0.0000 O   0  0  0  0  0  0  0  0  0  0  0  0
    2.2001   -2.6163    0.0000 C   0  0  0  0  0  0  0  0  0  0  0  0
    2.1914   -1.1617    0.0000 N   0  0  0  0  0  0  0  0  0  0  0  0
    2.6142   -1.8862    0.0000 C   0  0  1  0  0  0  0  0  0  0  0  0
    3.4188   -1.7187    0.0000 C   0  0  0  0  0  0  0  0  0  0  0  0
    2.7519   -0.5677    0.0000 C   0  0  0  0  0  0  0  0  0  0  0  0
    3.5047   -0.8982    0.0000 C   0  0  1  0  0  0  0  0  0  0  0  0
    4.1914   -0.3301    0.0000 N   0  0  0  0  0  0  0  0  0  0  0  0
    2.8910   -3.3003    0.0000 N   0  0  0  0  0  0  0  0  0  0  0  0
    1.0297   -0.3301    0.0000 O   0  0  0  0  0  0  0  0  0  0  0  0
    1.3505   -1.1172    0.0000 C   0  0  0  0  0  0  0  0  0  0  0  0
    0.8816   -1.7658    0.0000 C   0  0  0  0  0  0  0  0  0  0  0  0
    0.0713   -1.6817    0.0000 C   0  0  0  0  0  0  0  0  0  0  0  0
    4.9316   -0.9059    0.0000 C   0  0  0  0  0  0  0  0  0  0  0  0
    9.9562   -4.6244    0.0000 C   0  0  0  0  0  0  0  0  0  0  0  0
   11.3465   -2.1246    0.0000 C   0  0  0  0  0  0  0  0  0  0  0  0
  1  2  1  0  0  0  0
  1  5  2  0  0  0  0
  2 17  2  0  0  0  0
  3  1  1  0  0  0  0
  4  5  1  0  0  0  0
  4 12  1  0  0  0  0
  5 13  1  0  0  0  0
  6  7  2  0  0  0  0
  6  8  1  0  0  0  0
  7 19  1  0  0  0  0
  8 33  2  0  0  0  0
  9 10  2  0  0  0  0
 10 11  1  0  0  0  0
 10  7  1  0  0  0  0
 11 12  2  0  0  0  0
 13 15  2  0  0  0  0
 14 13  1  0  0  0  0
 15 16  1  0  0  0  0
 16 35  1  0  0  0  0
 17 15  1  0  0  0  0
 18  2  1  0  0  0  0
 18 34  1  0  0  0  0
 19  4  2  0  0  0  0
 20 21  2  0  0  0  0
 21 28  1  0  0  0  0
 23 22  1  0  0  0  0
 22 25  1  0  0  0  0
 23 24  1  0  0  0  0
 23 21  1  1  0  0  0
 26 25  1  0  0  0  0
 26 27  1  1  0  0  0
 26 24  1  0  0  0  0
 29 30  2  0  0  0  0
 30 22  1  0  0  0  0
 31 30  1  0  0  0  0
 32 31  2  0  0  0  0
 33 27  1  0  0  0  0
 33  9  1  0  0  0  0
M  END
> <ID>
SCHEMBL21150671

> <InChIKey>
ZSQXMFLIQOYKHU-HOCLYGCPSA-N

> <MW>
516.38

> <Series_Name>
Series_15

$$$$
SCHEMBL21150888
  Mrv1719007191900372D 0   0.00000     0.00000     0

 38 42  0  0  0  0              1 V2000 
    2.2104   -7.5875    0.0000 N   0  0  0  0  0  0  0  0  0  0  0  0
    2.2158   -8.4133    0.0000 C   0  0  0  0  0  0  0  0  0  0  0  0
    1.5096   -7.1903    0.0000 C   0  0  0  0  0  0  0  0  0  0  0  0
    1.5058   -6.3497    0.0000 C   0  0  0  0  0  0  0  0  0  0  0  0
    2.2153   -5.9415    0.0000 C   0  0  0  0  0  0  0  0  0  0  0  0
    1.5143   -4.7074    0.0000 C   0  0  0  0  0  0  0  0  0  0  0  0
    2.2194   -5.1129    0.0000 C   0  0  0  0  0  0  0  0  0  0  0  0
    0.7699   -3.4523    0.0000 O   0  0  0  0  0  0  0  0  0  0  0  0
    1.5103   -3.8729    0.0000 C   0  0  0  0  0  0  0  0  0  0  0  0
    2.2143   -3.4597    0.0000 C   0  0  0  0  0  0  0  0  0  0  0  0
    2.0738   -2.6202    0.0000 N   0  0  0  0  0  0  0  0  0  0  0  0
    2.9332   -3.8762    0.0000 C   0  0  0  0  0  0  0  0  0  0  0  0
    2.9343   -4.7027    0.0000 C   0  0  0  0  0  0  0  0  0  0  0  0
    3.6442   -5.1148    0.0000 C   0  0  0  0  0  0  0  0  0  0  0  0
    2.9316   -7.1774    0.0000 C   0  0  0  0  0  0  0  0  0  0  0  0
    2.9325   -6.3609    0.0000 C   0  0  0  0  0  0  0  0  0  0  0  0
    5.0812   -3.4618    0.0000 C   0  0  0  0  0  0  0  0  0  0  0  0
    5.2032   -2.6202    0.0000 N   0  0  0  0  0  0  0  0  0  0  0  0
    5.8083   -3.8727    0.0000 C   0  0  0  0  0  0  0  0  0  0  0  0
    6.5009   -3.3032    0.0000 N   0  0  0  0  0  0  0  0  0  0  0  0
    5.7976   -4.6966    0.0000 C   0  0  0  0  0  0  0  0  0  0  0  0
    4.3807   -3.8673    0.0000 C   0  0  0  0  0  0  0  0  0  0  0  0
    4.3852   -4.7076    0.0000 C   0  0  0  0  0  0  0  0  0  0  0  0
    5.0868   -5.1076    0.0000 C   0  0  0  0  0  0  0  0  0  0  0  0
    7.3267   -3.4523    0.0000 S   0  0  0  0  0  0  0  0  0  0  0  0
    7.3267   -4.2718    0.0000 O   0  0  0  0  0  0  0  0  0  0  0  0
    8.1773   -3.4591    0.0000 C   0  0  0  0  0  0  0  0  0  0  0  0
    7.3267   -2.6202    0.0000 O   0  0  0  0  0  0  0  0  0  0  0  0
    2.9307   -1.3784    0.0000 N   0  0  0  0  0  0  0  0  0  0  0  0
    2.9315   -2.2200    0.0000 C   0  0  0  0  0  0  0  0  0  0  0  0
    3.6510   -2.6202    0.0000 N   0  0  0  0  0  0  0  0  0  0  0  0
    3.6442   -0.9708    0.0000 C   0  0  0  0  0  0  0  0  0  0  0  0
    4.3738   -1.3837    0.0000 C   0  0  0  0  0  0  0  0  0  0  0  0
    3.8299   -0.1712    0.0000 C   0  0  0  0  0  0  0  0  0  0  0  0
    4.6457   -0.0896    0.0000 C   0  0  0  0  0  0  0  0  0  0  0  0
    4.9672   -0.8196    0.0000 S   0  0  0  0  0  0  0  0  0  0  0  0
    4.3830   -2.2202    0.0000 C   0  0  0  0  0  0  0  0  0  0  0  0
    0.0601   -3.8744    0.0000 C   0  0  0  0  0  0  0  0  0  0  0  0
  1  2  1  0  0  0  0
  3  4  1  0  0  0  0
  3  1  1  0  0  0  0
  4  5  1  0  0  0  0
  6  7  2  0  0  0  0
  6  9  1  0  0  0  0
  7  5  1  0  0  0  0
  8  9  1  0  0  0  0
  9 10  2  0  0  0  0
 10 11  1  0  0  0  0
 10 12  1  0  0  0  0
 12 13  2  0  0  0  0
 13 14  1  0  0  0  0
 13  7  1  0  0  0  0
 15  1  1  0  0  0  0
 15 16  1  0  0  0  0
 16  5  1  0  0  0  0
 17 18  1  0  0  0  0
 17 19  1  0  0  0  0
 19 20  1  0  0  0  0
 21 19  2  0  0  0  0
 22 17  2  0  0  0  0
 22 23  1  0  0  0  0
 23 24  2  0  0  0  0
 24 21  1  0  0  0  0
 25 26  2  0  0  0  0
 25 20  1  0  0  0  0
 25 27  1  0  0  0  0
 28 25  2  0  0  0  0
 29 30  2  0  0  0  0
 29 32  1  0  0  0  0
 30 31  1  0  0  0  0
 30 11  1  0  0  0  0
 31 37  2  0  0  0  0
 32 33  2  0  0  0  0
 32 34  1  0  0  0  0
 33 36  1  0  0  0  0
 34 35  2  0  0  0  0
 35 36  1  0  0  0  0
 37 33  1  0  0  0  0
 37 18  1  0  0  0  0
 38  8  1  0  0  0  0
M  END
> <ID>
SCHEMBL21150888

> <InChIKey>
ALKCCUGZYMBLHT-UHFFFAOYSA-N

> <MW>
552.71

> <Series_Name>
Series_7

$$$$
SCHEMBL21150899
  Mrv1719007191900382D 0   0.00000     0.00000     0

 38 42  0  0  0  0              1 V2000 
    2.2042   -7.5537    0.0000 N   0  0  0  0  0  0  0  0  0  0  0  0
    2.2096   -8.3896    0.0000 C   0  0  0  0  0  0  0  0  0  0  0  0
    1.5029   -7.1658    0.0000 C   0  0  0  0  0  0  0  0  0  0  0  0
    1.5084   -6.3274    0.0000 C   0  0  0  0  0  0  0  0  0  0  0  0
    1.5035   -4.6895    0.0000 C   0  0  0  0  0  0  0  0  0  0  0  0
    2.2106   -5.0935    0.0000 C   0  0  0  0  0  0  0  0  0  0  0  0
    0.7677   -3.4301    0.0000 O   0  0  0  0  0  0  0  0  0  0  0  0
    1.5010   -3.8548    0.0000 C   0  0  0  0  0  0  0  0  0  0  0  0
    2.2166   -3.4443    0.0000 C   0  0  0  0  0  0  0  0  0  0  0  0
    2.0680   -2.6005    0.0000 N   0  0  0  0  0  0  0  0  0  0  0  0
    2.9205   -3.8571    0.0000 C   0  0  0  0  0  0  0  0  0  0  0  0
    2.9298   -4.6813    0.0000 C   0  0  0  0  0  0  0  0  0  0  0  0
    3.6239   -5.0855    0.0000 C   0  0  0  0  0  0  0  0  0  0  0  0
    2.2149   -5.9220    0.0000 C   0  0  0  0  0  0  0  0  0  0  0  0
    2.9208   -6.3339    0.0000 C   0  0  0  0  0  0  0  0  0  0  0  0
    2.9264   -7.1592    0.0000 C   0  0  0  0  0  0  0  0  0  0  0  0
    6.5065   -6.7302    0.0000 C   0  0  0  0  0  0  0  0  0  0  0  0
    6.4763   -5.9067    0.0000 S   0  0  0  0  0  0  0  0  0  0  0  0
    5.6591   -5.9067    0.0000 O   0  0  0  0  0  0  0  0  0  0  0  0
    7.3060   -5.9067    0.0000 O   0  0  0  0  0  0  0  0  0  0  0  0
    6.6126   -5.0771    0.0000 N   0  0  0  0  0  0  0  0  0  0  0  0
    4.3666   -4.6932    0.0000 C   0  0  0  0  0  0  0  0  0  0  0  0
    4.3689   -3.8503    0.0000 C   0  0  0  0  0  0  0  0  0  0  0  0
    5.0763   -3.4448    0.0000 C   0  0  0  0  0  0  0  0  0  0  0  0
    5.1885   -2.6005    0.0000 N   0  0  0  0  0  0  0  0  0  0  0  0
    5.7906   -3.8618    0.0000 C   0  0  0  0  0  0  0  0  0  0  0  0
    5.7882   -4.6848    0.0000 C   0  0  0  0  0  0  0  0  0  0  0  0
    5.0695   -5.0941    0.0000 C   0  0  0  0  0  0  0  0  0  0  0  0
    2.9224   -1.3621    0.0000 N   0  0  0  0  0  0  0  0  0  0  0  0
    2.9325   -2.2078    0.0000 C   0  0  0  0  0  0  0  0  0  0  0  0
    3.6406   -2.6005    0.0000 N   0  0  0  0  0  0  0  0  0  0  0  0
    3.6425   -0.9522    0.0000 C   0  0  0  0  0  0  0  0  0  0  0  0
    4.3641   -1.3740    0.0000 C   0  0  0  0  0  0  0  0  0  0  0  0
    4.6289   -0.0873    0.0000 C   0  0  0  0  0  0  0  0  0  0  0  0
    4.9532   -0.8173    0.0000 S   0  0  0  0  0  0  0  0  0  0  0  0
    3.8209   -0.1710    0.0000 C   0  0  0  0  0  0  0  0  0  0  0  0
    4.3641   -2.2005    0.0000 C   0  0  0  0  0  0  0  0  0  0  0  0
    0.0556   -3.8654    0.0000 C   0  0  0  0  0  0  0  0  0  0  0  0
  1  2  1  0  0  0  0
  3  4  1  0  0  0  0
  3  1  1  0  0  0  0
  5  6  2  0  0  0  0
  5  8  1  0  0  0  0
  6 14  1  0  0  0  0
  7  8  1  0  0  0  0
  8  9  2  0  0  0  0
  9 10  1  0  0  0  0
  9 11  1  0  0  0  0
 11 12  2  0  0  0  0
 12 13  1  0  0  0  0
 12  6  1  0  0  0  0
 14 15  1  0  0  0  0
 14  4  1  0  0  0  0
 16  1  1  0  0  0  0
 16 15  1  0  0  0  0
 17 18  1  0  0  0  0
 18 20  2  0  0  0  0
 19 18  2  0  0  0  0
 21 18  1  0  0  0  0
 21 27  1  0  0  0  0
 22 23  1  0  0  0  0
 22 28  2  0  0  0  0
 23 24  2  0  0  0  0
 24 25  1  0  0  0  0
 24 26  1  0  0  0  0
 27 26  2  0  0  0  0
 28 27  1  0  0  0  0
 29 30  2  0  0  0  0
 29 32  1  0  0  0  0
 30 31  1  0  0  0  0
 30 10  1  0  0  0  0
 31 37  2  0  0  0  0
 32 33  2  0  0  0  0
 32 36  1  0  0  0  0
 33 35  1  0  0  0  0
 34 35  1  0  0  0  0
 36 34  2  0  0  0  0
 37 33  1  0  0  0  0
 37 25  1  0  0  0  0
 38  7  1  0  0  0  0
M  END
> <ID>
SCHEMBL21150899

> <InChIKey>
TVZBRTZTIORTKM-UHFFFAOYSA-N

> <MW>
552.71

> <Series_Name>
Series_7

$$$$
SCHEMBL21150945
  Mrv1719007191900512D 0   0.00000     0.00000     0

 33 37  0  0  1  0              1 V2000 
    8.4268   -3.0278    0.0000 C   0  0  0  0  0  0  0  0  0  0  0  0
    9.1357   -3.4372    0.0000 C   0  0  0  0  0  0  0  0  0  0  0  0
    7.5928   -3.4362    0.0000 Cl  0  0  0  0  0  0  0  0  0  0  0  0
    7.6837   -1.7870    0.0000 C   0  0  0  0  0  0  0  0  0  0  0  0
    8.4236   -2.1976    0.0000 C   0  0  0  0  0  0  0  0  0  0  0  0
    5.5490   -2.1873    0.0000 C   0  0  0  0  0  0  0  0  0  0  0  0
    6.2820   -1.7889    0.0000 C   0  0  0  0  0  0  0  0  0  0  0  0
    4.8309   -1.7732    0.0000 N   0  0  0  0  0  0  0  0  0  0  0  0
    5.5430   -0.5305    0.0000 N   0  0  0  0  0  0  0  0  0  0  0  0
    6.2731   -0.9559    0.0000 C   0  0  0  0  0  0  0  0  0  0  0  0
    6.9877   -0.5558    0.0000 C   0  0  0  0  0  0  0  0  0  0  0  0
    7.6923   -0.9560    0.0000 C   0  0  0  0  0  0  0  0  0  0  0  0
    9.2194   -0.9510    0.0000 Cl  0  0  0  0  0  0  0  0  0  0  0  0
    9.1408   -1.7893    0.0000 C   0  0  0  0  0  0  0  0  0  0  0  0
    9.8424   -2.1964    0.0000 C   0  0  0  0  0  0  0  0  0  0  0  0
   10.5414   -1.7732    0.0000 O   0  0  0  0  0  0  0  0  0  0  0  0
    9.1173   -4.2445    0.0000 O   0  0  0  0  0  0  0  0  0  0  0  0
    9.8471   -3.0140    0.0000 C   0  0  0  0  0  0  0  0  0  0  0  0
    6.9788   -2.1926    0.0000 C   0  0  0  0  0  0  0  0  0  0  0  0
    0.8796   -0.6423    0.0000 O   0  0  0  0  0  0  0  0  0  0  0  0
    1.2756   -1.4117    0.0000 C   0  0  0  0  0  0  0  0  0  0  0  0
    2.1223   -1.3543    0.0000 N   0  0  0  0  0  0  0  0  0  0  0  0
    0.8968   -2.0830    0.0000 C   0  0  0  0  0  0  0  0  0  0  0  0
    0.0628   -2.0882    0.0000 C   0  0  0  0  0  0  0  0  0  0  0  0
    2.6242   -2.0315    0.0000 C   0  0  0  0  0  0  0  0  0  0  0  0
    3.4048   -1.7620    0.0000 C   0  0  2  0  0  0  0  0  0  0  0  0
    2.6476   -0.7237    0.0000 C   0  0  1  0  0  0  0  0  0  0  0  0
    2.7291   -1.2886    0.0000 C   0  0  0  0  0  0  0  0  0  0  0  0
    3.4051   -0.9537    0.0000 C   0  0  2  0  0  0  0  0  0  0  0  0
    4.8330   -0.9538    0.0000 C   0  0  0  0  0  0  0  0  0  0  0  0
    4.0979   -0.3490    0.0000 N   0  0  0  0  0  0  0  0  0  0  0  0
    9.8434   -4.6767    0.0000 C   0  0  0  0  0  0  0  0  0  0  0  0
   11.2921   -2.2115    0.0000 C   0  0  0  0  0  0  0  0  0  0  0  0
  1  2  1  0  0  0  0
  1  3  1  0  0  0  0
  2 18  2  0  0  0  0
  4  5  1  0  0  0  0
  4 12  1  0  0  0  0
  5  1  2  0  0  0  0
  6  7  2  0  0  0  0
  6  8  1  0  0  0  0
  7 19  1  0  0  0  0
  8 30  2  0  0  0  0
  9 10  2  0  0  0  0
 10 11  1  0  0  0  0
 10  7  1  0  0  0  0
 11 12  2  0  0  0  0
 13 14  1  0  0  0  0
 14 15  2  0  0  0  0
 14  5  1  0  0  0  0
 15 16  1  0  0  0  0
 16 33  1  0  0  0  0
 17  2  1  0  0  0  0
 17 32  1  0  0  0  0
 18 15  1  0  0  0  0
 19  4  2  0  0  0  0
 20 21  2  0  0  0  0
 21 22  1  0  0  0  0
 23 21  1  0  0  0  0
 24 23  2  0  0  0  0
 25 22  1  0  0  0  0
 26 25  1  0  0  0  0
 26 28  1  1  0  0  0
 29 26  1  0  0  0  0
 27 22  1  0  0  0  0
 27 28  1  1  0  0  0
 29 27  1  0  0  0  0
 29 31  1  6  0  0  0
 30 31  1  0  0  0  0
 30  9  1  0  0  0  0
M  END
> <ID>
SCHEMBL21150945

> <InChIKey>
OSGKVHJMZVCUFK-LZDHAAFVSA-N

> <MW>
485.37

> <Series_Name>
Series_15

$$$$
SCHEMBL21150963
  Mrv1719007191900552D 0   0.00000     0.00000     0

 34 37  0  0  1  0              1 V2000 
    9.1069   -3.3809    0.0000 C   0  0  0  0  0  0  0  0  0  0  0  0
    8.3983   -2.9675    0.0000 C   0  0  0  0  0  0  0  0  0  0  0  0
    7.5612   -3.3782    0.0000 Cl  0  0  0  0  0  0  0  0  0  0  0  0
    7.6816   -1.7341    0.0000 C   0  0  0  0  0  0  0  0  0  0  0  0
    8.4071   -2.1389    0.0000 C   0  0  0  0  0  0  0  0  0  0  0  0
    6.2575   -1.7350    0.0000 C   0  0  0  0  0  0  0  0  0  0  0  0
    6.9737   -2.1379    0.0000 C   0  0  0  0  0  0  0  0  0  0  0  0
    5.5373   -2.1374    0.0000 C   0  0  0  0  0  0  0  0  0  0  0  0
    4.8145   -1.7138    0.0000 N   0  0  0  0  0  0  0  0  0  0  0  0
    5.5340   -0.4841    0.0000 N   0  0  0  0  0  0  0  0  0  0  0  0
    6.2568   -0.9051    0.0000 C   0  0  0  0  0  0  0  0  0  0  0  0
    6.9629   -0.4932    0.0000 C   0  0  0  0  0  0  0  0  0  0  0  0
    7.6892   -0.9073    0.0000 C   0  0  0  0  0  0  0  0  0  0  0  0
    9.1068   -1.7349    0.0000 C   0  0  0  0  0  0  0  0  0  0  0  0
    9.1704   -0.9056    0.0000 Cl  0  0  0  0  0  0  0  0  0  0  0  0
    9.8354   -2.1433    0.0000 C   0  0  0  0  0  0  0  0  0  0  0  0
   10.5317   -1.7138    0.0000 O   0  0  0  0  0  0  0  0  0  0  0  0
    9.8049   -2.9791    0.0000 C   0  0  0  0  0  0  0  0  0  0  0  0
    9.0926   -4.1996    0.0000 O   0  0  0  0  0  0  0  0  0  0  0  0
    0.8765   -0.5887    0.0000 O   0  0  0  0  0  0  0  0  0  0  0  0
    1.3245   -1.3268    0.0000 C   0  0  0  0  0  0  0  0  0  0  0  0
    2.1194   -1.3083    0.0000 N   0  0  0  0  0  0  0  0  0  0  0  0
    0.8904   -2.0327    0.0000 C   0  0  0  0  0  0  0  0  0  0  0  0
    0.0654   -2.0344    0.0000 C   0  0  0  0  0  0  0  0  0  0  0  0
    2.6109   -1.9840    0.0000 C   0  0  2  0  0  0  0  0  0  0  0  0
    3.3872   -1.7326    0.0000 C   0  0  0  0  0  0  0  0  0  0  0  0
    3.3845   -0.9044    0.0000 C   0  0  2  0  0  0  0  0  0  0  0  0
    2.6078   -0.6549    0.0000 C   0  0  0  0  0  0  0  0  0  0  0  0
    4.8317   -0.9067    0.0000 C   0  0  0  0  0  0  0  0  0  0  0  0
    4.0884   -0.3336    0.0000 N   0  0  0  0  0  0  0  0  0  0  0  0
   10.5503   -0.9093    0.0000 C   0  0  0  0  0  0  0  0  0  0  0  0
    9.8271   -4.6162    0.0000 C   0  0  0  0  0  0  0  0  0  0  0  0
    2.3962   -2.7751    0.0000 C   0  0  0  0  0  0  0  0  0  0  0  0
    3.1006   -3.3492    0.0000 O   0  0  0  0  0  0  0  0  0  0  0  0
  1  2  1  0  0  0  0
  1 18  2  0  0  0  0
  2  5  2  0  0  0  0
  3  2  1  0  0  0  0
  4  5  1  0  0  0  0
  4 13  1  0  0  0  0
  5 14  1  0  0  0  0
  6  7  1  0  0  0  0
  7  4  2  0  0  0  0
  8  6  2  0  0  0  0
  8  9  1  0  0  0  0
  9 29  2  0  0  0  0
 10 11  2  0  0  0  0
 11 12  1  0  0  0  0
 11  6  1  0  0  0  0
 12 13  2  0  0  0  0
 14 16  2  0  0  0  0
 15 14  1  0  0  0  0
 16 17  1  0  0  0  0
 18 16  1  0  0  0  0
 19  1  1  0  0  0  0
 19 32  1  0  0  0  0
 20 21  2  0  0  0  0
 21 22  1  0  0  0  0
 23 21  1  0  0  0  0
 24 23  2  0  0  0  0
 25 26  1  0  0  0  0
 25 22  1  0  0  0  0
 25 33  1  6  0  0  0
 27 26  1  0  0  0  0
 27 30  1  6  0  0  0
 27 28  1  0  0  0  0
 28 22  1  0  0  0  0
 29 30  1  0  0  0  0
 29 10  1  0  0  0  0
 31 17  1  0  0  0  0
 33 34  1  0  0  0  0
M  END
> <ID>
SCHEMBL21150963

> <InChIKey>
YVXAXVKOFFUUJI-HZPDHXFCSA-N

> <MW>
503.38

> <Series_Name>
Series_15

$$$$
SCHEMBL21150966
  Mrv1719007191900562D 0   0.00000     0.00000     0

 34 37  0  0  0  0              1 V2000 
    1.1632   -0.1176    0.0000 O   0  0  0  0  0  0  0  0  0  0  0  0
    0.0124   -1.2870    0.0000 C   0  0  0  0  0  0  0  0  0  0  0  0
    2.4997   -3.3351    0.0000 Br  0  0  0  0  0  0  0  0  0  0  0  0
   10.6671   -1.1385    0.0000 C   0  0  0  0  0  0  0  0  0  0  0  0
    9.2812   -1.1261    0.0000 Cl  0  0  0  0  0  0  0  0  0  0  0  0
    7.6786   -3.6011    0.0000 Cl  0  0  0  0  0  0  0  0  0  0  0  0
    9.9370   -4.8386    0.0000 C   0  0  0  0  0  0  0  0  0  0  0  0
    1.3447   -0.9363    0.0000 C   0  0  0  0  0  0  0  0  0  0  0  0
    3.5145   -1.1220    0.0000 C   0  0  2  0  0  0  0  0  0  0  0  0
    2.8586   -0.6435    0.0000 C   0  0  0  0  0  0  0  0  0  0  0  0
    7.8086   -1.9346    0.0000 C   0  0  0  0  0  0  0  0  0  0  0  0
    7.8086   -1.1385    0.0000 C   0  0  0  0  0  0  0  0  0  0  0  0
    7.1279   -0.7301    0.0000 C   0  0  0  0  0  0  0  0  0  0  0  0
    6.3731   -1.1220    0.0000 C   0  0  0  0  0  0  0  0  0  0  0  0
    4.9417   -1.1220    0.0000 C   0  0  0  0  0  0  0  0  0  0  0  0
    0.7920   -1.4974    0.0000 C   0  0  0  0  0  0  0  0  0  0  0  0
    3.2422   -1.9057    0.0000 C   0  0  0  0  0  0  0  0  0  0  0  0
    2.4337   -1.8974    0.0000 C   0  0  1  0  0  0  0  0  0  0  0  0
    2.0542   -2.5616    0.0000 C   0  0  0  0  0  0  0  0  0  0  0  0
    6.3731   -1.9470    0.0000 C   0  0  0  0  0  0  0  0  0  0  0  0
    9.2234   -1.9346    0.0000 C   0  0  0  0  0  0  0  0  0  0  0  0
    8.5098   -2.3677    0.0000 C   0  0  0  0  0  0  0  0  0  0  0  0
    7.0908   -2.3636    0.0000 C   0  0  0  0  0  0  0  0  0  0  0  0
    9.9494   -2.3595    0.0000 C   0  0  0  0  0  0  0  0  0  0  0  0
    8.5139   -3.1845    0.0000 C   0  0  0  0  0  0  0  0  0  0  0  0
    5.6553   -2.3636    0.0000 C   0  0  0  0  0  0  0  0  0  0  0  0
    9.9494   -3.1679    0.0000 C   0  0  0  0  0  0  0  0  0  0  0  0
    9.2317   -3.5970    0.0000 C   0  0  0  0  0  0  0  0  0  0  0  0
    9.2193   -4.4240    0.0000 O   0  0  0  0  0  0  0  0  0  0  0  0
   10.6547   -1.9490    0.0000 O   0  0  0  0  0  0  0  0  0  0  0  0
    4.9562   -1.9490    0.0000 N   0  0  0  0  0  0  0  0  0  0  0  0
    2.1842   -1.1199    0.0000 N   0  0  0  0  0  0  0  0  0  0  0  0
    4.2261   -0.7116    0.0000 N   0  0  0  0  0  0  0  0  0  0  0  0
    5.6615   -0.7116    0.0000 N   0  0  0  0  0  0  0  0  0  0  0  0
  1  8  2  0  0  0  0
  9 10  1  0  0  0  0
 11 12  1  0  0  0  0
 12 13  2  0  0  0  0
 13 14  1  0  0  0  0
  8 16  1  0  0  0  0
  2 16  2  0  0  0  0
  9 17  1  0  0  0  0
 18 17  1  0  0  0  0
 18 19  1  1  0  0  0
  3 19  1  0  0  0  0
 14 20  1  0  0  0  0
  5 21  1  0  0  0  0
 11 22  1  0  0  0  0
 21 22  1  0  0  0  0
 11 23  2  0  0  0  0
 20 23  1  0  0  0  0
 21 24  2  0  0  0  0
 22 25  2  0  0  0  0
  6 25  1  0  0  0  0
 20 26  2  0  0  0  0
 24 27  1  0  0  0  0
 27 28  2  0  0  0  0
 25 28  1  0  0  0  0
  7 29  1  0  0  0  0
 28 29  1  0  0  0  0
  4 30  1  0  0  0  0
 24 30  1  0  0  0  0
 15 31  2  0  0  0  0
 26 31  1  0  0  0  0
  8 32  1  0  0  0  0
 10 32  1  0  0  0  0
 18 32  1  0  0  0  0
  9 33  1  1  0  0  0
 15 33  1  0  0  0  0
 14 34  2  0  0  0  0
 15 34  1  0  0  0  0
M  END
> <ID>
SCHEMBL21150966

> <InChIKey>
VAOWBZPOTSHYAN-HOTGVXAUSA-N

> <MW>
566.28

> <Series_Name>
Series_15

$$$$
SCHEMBL21150967
  Mrv1719007191900562D 0   0.00000     0.00000     0

 33 37  0  0  1  0              1 V2000 
    1.5186   -2.9920    0.0000 C   0  0  0  0  0  0  0  0  0  0  0  0
    2.2332   -3.3972    0.0000 C   0  0  0  0  0  0  0  0  0  0  0  0
    0.7812   -1.7347    0.0000 O   0  0  0  0  0  0  0  0  0  0  0  0
    1.5157   -2.1513    0.0000 C   0  0  0  0  0  0  0  0  0  0  0  0
    2.2257   -1.7436    0.0000 C   0  0  0  0  0  0  0  0  0  0  0  0
    2.3082   -0.9019    0.0000 Cl  0  0  0  0  0  0  0  0  0  0  0  0
    2.9498   -2.1564    0.0000 C   0  0  0  0  0  0  0  0  0  0  0  0
    3.6611   -1.7424    0.0000 C   0  0  0  0  0  0  0  0  0  0  0  0
    3.6672   -0.9126    0.0000 C   0  0  0  0  0  0  0  0  0  0  0  0
    4.3738   -0.4985    0.0000 C   0  0  0  0  0  0  0  0  0  0  0  0
    5.0916   -0.9136    0.0000 C   0  0  0  0  0  0  0  0  0  0  0  0
    5.7999   -0.4899    0.0000 N   0  0  0  0  0  0  0  0  0  0  0  0
    5.0638   -1.7553    0.0000 C   0  0  0  0  0  0  0  0  0  0  0  0
    5.8058   -2.1628    0.0000 C   0  0  0  0  0  0  0  0  0  0  0  0
    6.5149   -1.7215    0.0000 N   0  0  0  0  0  0  0  0  0  0  0  0
    2.9431   -2.9878    0.0000 C   0  0  0  0  0  0  0  0  0  0  0  0
    3.7383   -3.3913    0.0000 Cl  0  0  0  0  0  0  0  0  0  0  0  0
    2.2114   -4.2108    0.0000 O   0  0  0  0  0  0  0  0  0  0  0  0
    4.3729   -2.1490    0.0000 C   0  0  0  0  0  0  0  0  0  0  0  0
    7.9608   -0.9122    0.0000 C   0  0  1  0  0  0  0  0  0  0  0  0
    7.2233   -0.3377    0.0000 N   0  0  0  0  0  0  0  0  0  0  0  0
    8.7119   -0.5716    0.0000 C   0  0  1  0  0  0  0  0  0  0  0  0
    9.2691   -1.1785    0.0000 N   0  0  0  0  0  0  0  0  0  0  0  0
    8.8473   -1.9063    0.0000 C   0  0  0  0  0  0  0  0  0  0  0  0
    8.0415   -1.7363    0.0000 C   0  0  0  0  0  0  0  0  0  0  0  0
   10.0828   -1.1067    0.0000 C   0  0  0  0  0  0  0  0  0  0  0  0
   10.4080   -0.3443    0.0000 O   0  0  0  0  0  0  0  0  0  0  0  0
   10.5847   -1.7820    0.0000 C   0  0  0  0  0  0  0  0  0  0  0  0
   11.3898   -1.6850    0.0000 C   0  0  0  0  0  0  0  0  0  0  0  0
    6.5352   -0.9127    0.0000 C   0  0  0  0  0  0  0  0  0  0  0  0
    1.5079   -4.6340    0.0000 C   0  0  0  0  0  0  0  0  0  0  0  0
    0.0908   -2.1427    0.0000 C   0  0  0  0  0  0  0  0  0  0  0  0
    8.7082   -1.1794    0.0000 C   0  0  0  0  0  0  0  0  0  0  0  0
  1  2  1  0  0  0  0
  2 16  2  0  0  0  0
  3  4  1  0  0  0  0
  4  1  2  0  0  0  0
  5  4  1  0  0  0  0
  5  7  2  0  0  0  0
  6  5  1  0  0  0  0
  7  8  1  0  0  0  0
  7 16  1  0  0  0  0
  8 19  2  0  0  0  0
  9 10  2  0  0  0  0
  9  8  1  0  0  0  0
 10 11  1  0  0  0  0
 11 12  2  0  0  0  0
 11 13  1  0  0  0  0
 13 14  2  0  0  0  0
 14 15  1  0  0  0  0
 15 30  2  0  0  0  0
 16 17  1  0  0  0  0
 18  2  1  0  0  0  0
 19 13  1  0  0  0  0
 20 21  1  1  0  0  0
 20 22  1  0  0  0  0
 22 23  1  0  0  0  0
 22 33  1  6  0  0  0
 23 26  1  0  0  0  0
 24 23  1  0  0  0  0
 24 25  1  0  0  0  0
 20 25  1  0  0  0  0
 25 33  1  0  0  0  0
 26 27  2  0  0  0  0
 26 28  1  0  0  0  0
 28 29  2  0  0  0  0
 30 12  1  0  0  0  0
 30 21  1  0  0  0  0
 31 18  1  0  0  0  0
 32  3  1  0  0  0  0
M  END
> <ID>
SCHEMBL21150967

> <InChIKey>
OSGKVHJMZVCUFK-YCVMGFJUSA-N

> <MW>
485.37

> <Series_Name>
Series_15

$$$$
SCHEMBL21150969
  Mrv1719007191900562D 0   0.00000     0.00000     0

 47 52  0  0  1  0              1 V2000 
    4.2387   -4.5763    0.0000 C   0  0  0  0  0  0  0  0  0  0  0  0
    4.3269   -5.4025    0.0000 C   0  0  0  0  0  0  0  0  0  0  0  0
    3.5855   -4.1168    0.0000 C   0  0  0  0  0  0  0  0  0  0  0  0
    3.8109   -3.2886    0.0000 N   0  0  0  0  0  0  0  0  0  0  0  0
    4.8968   -4.0943    0.0000 C   0  0  0  0  0  0  0  0  0  0  0  0
    4.5851   -3.3022    0.0000 C   0  0  0  0  0  0  0  0  0  0  0  0
    5.0388   -2.5829    0.0000 O   0  0  0  0  0  0  0  0  0  0  0  0
    5.6595   -4.4337    0.0000 C   0  0  0  0  0  0  0  0  0  0  0  0
    5.7446   -5.2481    0.0000 C   0  0  0  0  0  0  0  0  0  0  0  0
    5.0606   -5.7201    0.0000 C   0  0  0  0  0  0  0  0  0  0  0  0
   10.0353   -4.2202    0.0000 O   0  0  0  0  0  0  0  0  0  0  0  0
   10.7807   -4.6636    0.0000 C   0  0  0  0  0  0  0  0  0  0  0  0
    9.3331   -2.9996    0.0000 C   0  0  0  0  0  0  0  0  0  0  0  0
   10.0497   -3.4080    0.0000 C   0  0  0  0  0  0  0  0  0  0  0  0
    8.5154   -3.4032    0.0000 Cl  0  0  0  0  0  0  0  0  0  0  0  0
    9.3382   -2.1802    0.0000 C   0  0  0  0  0  0  0  0  0  0  0  0
    8.6268   -1.7677    0.0000 C   0  0  0  0  0  0  0  0  0  0  0  0
    7.9106   -2.1815    0.0000 C   0  0  0  0  0  0  0  0  0  0  0  0
    7.1913   -1.7674    0.0000 C   0  0  0  0  0  0  0  0  0  0  0  0
    6.4890   -2.1750    0.0000 C   0  0  0  0  0  0  0  0  0  0  0  0
    5.7728   -1.7502    0.0000 N   0  0  0  0  0  0  0  0  0  0  0  0
    6.4785   -0.5081    0.0000 N   0  0  0  0  0  0  0  0  0  0  0  0
    7.2001   -0.9383    0.0000 C   0  0  0  0  0  0  0  0  0  0  0  0
    7.9056   -0.5292    0.0000 C   0  0  0  0  0  0  0  0  0  0  0  0
    8.6292   -0.9427    0.0000 C   0  0  0  0  0  0  0  0  0  0  0  0
   10.1385   -0.9331    0.0000 Cl  0  0  0  0  0  0  0  0  0  0  0  0
    9.9749   -1.8386    0.0000 C   0  0  0  0  0  0  0  0  0  0  0  0
   10.7255   -2.2148    0.0000 C   0  0  0  0  0  0  0  0  0  0  0  0
   11.4609   -1.7502    0.0000 O   0  0  0  0  0  0  0  0  0  0  0  0
   10.7640   -2.9903    0.0000 C   0  0  0  0  0  0  0  0  0  0  0  0
    3.4595   -1.9280    0.0000 C   0  0  1  0  0  0  0  0  0  0  0  0
    3.2884   -2.7075    0.0000 C   0  0  0  0  0  0  0  0  0  0  0  0
    3.0346   -1.1997    0.0000 N   0  0  0  0  0  0  0  0  0  0  0  0
    4.3538   -0.9373    0.0000 C   0  0  1  0  0  0  0  0  0  0  0  0
    3.5910   -0.6137    0.0000 C   0  0  0  0  0  0  0  0  0  0  0  0
    5.0317   -0.3528    0.0000 N   0  0  0  0  0  0  0  0  0  0  0  0
    4.2569   -1.7599    0.0000 C   0  0  0  0  0  0  0  0  0  0  0  0
   12.2062   -2.1937    0.0000 C   0  0  0  0  0  0  0  0  0  0  0  0
    0.8662   -1.3791    0.0000 C   0  0  0  0  0  0  0  0  0  0  0  0
    0.0635   -1.1539    0.0000 C   0  0  0  0  0  0  0  0  0  0  0  0
    0.6691   -0.5967    0.0000 C   0  0  0  0  0  0  0  0  0  0  0  0
    1.6514   -1.5808    0.0000 O   0  0  0  0  0  0  0  0  0  0  0  0
    0.2893   -1.9549    0.0000 C   0  0  0  0  0  0  0  0  0  0  0  0
    5.7783   -0.9403    0.0000 C   0  0  0  0  0  0  0  0  0  0  0  0
    2.0184   -0.1976    0.0000 O   0  0  0  0  0  0  0  0  0  0  0  0
    2.2718   -1.0002    0.0000 C   0  0  0  0  0  0  0  0  0  0  0  0
    2.8370   -4.4883    0.0000 O   0  0  0  0  0  0  0  0  0  0  0  0
  1  2  1  0  0  0  0
  1  5  2  0  0  0  0
  2 10  2  0  0  0  0
  3  4  1  0  0  0  0
  3  1  1  0  0  0  0
  4 32  1  0  0  0  0
  4  6  1  0  0  0  0
  5  6  1  0  0  0  0
  5  8  1  0  0  0  0
  6  7  2  0  0  0  0
  8  9  2  0  0  0  0
 10  9  1  0  0  0  0
 11 12  1  0  0  0  0
 11 14  1  0  0  0  0
 13 14  1  0  0  0  0
 13 16  2  0  0  0  0
 14 30  2  0  0  0  0
 15 13  1  0  0  0  0
 16 17  1  0  0  0  0
 16 27  1  0  0  0  0
 18 17  2  0  0  0  0
 19 18  1  0  0  0  0
 20 21  1  0  0  0  0
 20 19  2  0  0  0  0
 21 44  2  0  0  0  0
 22 23  2  0  0  0  0
 23 24  1  0  0  0  0
 23 19  1  0  0  0  0
 24 25  2  0  0  0  0
 25 17  1  0  0  0  0
 26 27  1  0  0  0  0
 27 28  2  0  0  0  0
 28 29  1  0  0  0  0
 28 30  1  0  0  0  0
 29 38  1  0  0  0  0
 31 32  1  1  0  0  0
 31 33  1  0  0  0  0
 33 35  1  0  0  0  0
 34 35  1  0  0  0  0
 34 36  1  1  0  0  0
 34 37  1  0  0  0  0
 31 37  1  0  0  0  0
 39 40  1  0  0  0  0
 39 43  1  0  0  0  0
 41 39  1  0  0  0  0
 42 39  1  0  0  0  0
 44 36  1  0  0  0  0
 44 22  1  0  0  0  0
 45 46  2  0  0  0  0
 46 33  1  0  0  0  0
 46 42  1  0  0  0  0
 47  3  2  0  0  0  0
M  END
> <ID>
SCHEMBL21150969

> <InChIKey>
JJDWJUHQFPUXHW-SFTDATJTSA-N

> <MW>
678.57

> <Series_Name>
Series_15

$$$$
SCHEMBL21150970
  Mrv1719007191900572D 0   0.00000     0.00000     0

 36 39  0  0  1  0              1 V2000 
    0.8639   -4.7583    0.0000 C   0  0  0  0  0  0  0  0  0  0  0  0
    0.0825   -4.9598    0.0000 C   0  0  0  0  0  0  0  0  0  0  0  0
    0.2841   -4.1553    0.0000 C   0  0  0  0  0  0  0  0  0  0  0  0
    1.6516   -4.5186    0.0000 O   0  0  0  0  0  0  0  0  0  0  0  0
    0.6606   -5.5514    0.0000 C   0  0  0  0  0  0  0  0  0  0  0  0
    1.2816   -3.1314    0.0000 O   0  0  0  0  0  0  0  0  0  0  0  0
    1.9251   -3.7211    0.0000 C   0  0  0  0  0  0  0  0  0  0  0  0
    2.6689   -3.5013    0.0000 N   0  0  0  0  0  0  0  0  0  0  0  0
    6.1174   -4.1884    0.0000 N   0  0  0  0  0  0  0  0  0  0  0  0
    6.8455   -3.7838    0.0000 C   0  0  0  0  0  0  0  0  0  0  0  0
    6.1283   -2.5617    0.0000 C   0  0  0  0  0  0  0  0  0  0  0  0
    6.8501   -2.9681    0.0000 C   0  0  0  0  0  0  0  0  0  0  0  0
    5.4039   -2.9596    0.0000 N   0  0  0  0  0  0  0  0  0  0  0  0
    7.5548   -2.5562    0.0000 C   0  0  0  0  0  0  0  0  0  0  0  0
    8.2746   -2.9700    0.0000 C   0  0  0  0  0  0  0  0  0  0  0  0
    8.9888   -2.5591    0.0000 C   0  0  0  0  0  0  0  0  0  0  0  0
    8.1448   -1.3109    0.0000 Cl  0  0  0  0  0  0  0  0  0  0  0  0
    8.9969   -1.7312    0.0000 C   0  0  0  0  0  0  0  0  0  0  0  0
    9.7040   -1.3202    0.0000 C   0  0  0  0  0  0  0  0  0  0  0  0
    9.6847   -0.4756    0.0000 O   0  0  0  0  0  0  0  0  0  0  0  0
   10.4142   -1.7335    0.0000 C   0  0  0  0  0  0  0  0  0  0  0  0
   10.4170   -2.5585    0.0000 C   0  0  0  0  0  0  0  0  0  0  0  0
   11.1117   -2.9596    0.0000 O   0  0  0  0  0  0  0  0  0  0  0  0
    9.7075   -2.9691    0.0000 C   0  0  0  0  0  0  0  0  0  0  0  0
    9.7568   -3.7948    0.0000 Cl  0  0  0  0  0  0  0  0  0  0  0  0
    8.2759   -3.7962    0.0000 C   0  0  0  0  0  0  0  0  0  0  0  0
    7.5560   -4.2112    0.0000 C   0  0  0  0  0  0  0  0  0  0  0  0
    3.2347   -4.1337    0.0000 C   0  0  0  0  0  0  0  0  0  0  0  0
    3.9738   -3.8003    0.0000 C   0  0  0  0  0  0  0  0  0  0  0  0
    3.9033   -2.9978    0.0000 C   0  0  1  0  0  0  0  0  0  0  0  0
    3.0927   -2.8129    0.0000 C   0  0  0  0  0  0  0  0  0  0  0  0
    4.4328   -2.4377    0.0000 C   0  0  0  0  0  0  0  0  0  0  0  0
    4.6838   -4.3403    0.0000 N   0  0  0  0  0  0  0  0  0  0  0  0
    5.4091   -3.8005    0.0000 C   0  0  0  0  0  0  0  0  0  0  0  0
   11.8318   -2.5590    0.0000 C   0  0  0  0  0  0  0  0  0  0  0  0
   10.4180   -0.0760    0.0000 C   0  0  0  0  0  0  0  0  0  0  0  0
  1  2  1  0  0  0  0
  1  3  1  0  0  0  0
  1  5  1  0  0  0  0
  4  1  1  0  0  0  0
  6  7  2  0  0  0  0
  7  8  1  0  0  0  0
  7  4  1  0  0  0  0
  9 10  2  0  0  0  0
 10 27  1  0  0  0  0
 11 12  2  0  0  0  0
 11 13  1  0  0  0  0
 12 14  1  0  0  0  0
 12 10  1  0  0  0  0
 13 34  2  0  0  0  0
 14 15  2  0  0  0  0
 15 16  1  0  0  0  0
 15 26  1  0  0  0  0
 16 24  2  0  0  0  0
 16 18  1  0  0  0  0
 17 18  1  0  0  0  0
 18 19  2  0  0  0  0
 19 20  1  0  0  0  0
 19 21  1  0  0  0  0
 20 36  1  0  0  0  0
 21 22  2  0  0  0  0
 22 23  1  0  0  0  0
 23 35  1  0  0  0  0
 24 25  1  0  0  0  0
 24 22  1  0  0  0  0
 27 26  2  0  0  0  0
 28 29  1  0  0  0  0
 28  8  1  0  0  0  0
 30 29  1  0  0  0  0
 29 33  1  0  0  0  0
 30 32  1  1  0  0  0
 31  8  1  0  0  0  0
 30 31  1  0  0  0  0
 34  9  1  0  0  0  0
 34 33  1  0  0  0  0
M  END
> <ID>
SCHEMBL21150970

> <InChIKey>
KWEIEFLKFQBPDT-IKJXHCRLSA-N

> <MW>
533.45

> <Series_Name>
Series_15

$$$$
SCHEMBL21150982
  Mrv1719007191900592D 0   0.00000     0.00000     0

 36 39  0  0  1  0              1 V2000 
    8.5216   -2.9392    0.0000 C   0  0  0  0  0  0  0  0  0  0  0  0
    7.6823   -3.3485    0.0000 Cl  0  0  0  0  0  0  0  0  0  0  0  0
    7.0839   -2.1132    0.0000 C   0  0  0  0  0  0  0  0  0  0  0  0
    7.8039   -1.6995    0.0000 C   0  0  0  0  0  0  0  0  0  0  0  0
    6.3645   -1.6996    0.0000 C   0  0  0  0  0  0  0  0  0  0  0  0
    5.6514   -2.1121    0.0000 C   0  0  0  0  0  0  0  0  0  0  0  0
    4.9319   -1.6853    0.0000 N   0  0  0  0  0  0  0  0  0  0  0  0
    5.6506   -0.4461    0.0000 N   0  0  0  0  0  0  0  0  0  0  0  0
    6.3739   -0.8726    0.0000 C   0  0  0  0  0  0  0  0  0  0  0  0
    7.0788   -0.4640    0.0000 C   0  0  0  0  0  0  0  0  0  0  0  0
    7.7920   -0.8746    0.0000 C   0  0  0  0  0  0  0  0  0  0  0  0
    8.5161   -2.1092    0.0000 C   0  0  0  0  0  0  0  0  0  0  0  0
    9.2229   -1.7014    0.0000 C   0  0  0  0  0  0  0  0  0  0  0  0
    9.2870   -0.8701    0.0000 Cl  0  0  0  0  0  0  0  0  0  0  0  0
    9.9425   -2.1100    0.0000 C   0  0  0  0  0  0  0  0  0  0  0  0
   10.6445   -1.6853    0.0000 O   0  0  0  0  0  0  0  0  0  0  0  0
    9.2195   -4.1636    0.0000 O   0  0  0  0  0  0  0  0  0  0  0  0
    9.2291   -3.3462    0.0000 C   0  0  0  0  0  0  0  0  0  0  0  0
    9.9367   -2.9382    0.0000 C   0  0  0  0  0  0  0  0  0  0  0  0
    1.5781   -3.0194    0.0000 C   0  0  0  0  0  0  0  0  0  0  0  0
    2.2619   -2.6155    0.0000 C   0  0  0  0  0  0  0  0  0  0  0  0
    1.5529   -2.1993    0.0000 C   0  0  0  0  0  0  0  0  0  0  0  0
    2.1934   -1.1400    0.0000 N   0  0  0  0  0  0  0  0  0  0  0  0
    2.6170   -1.8602    0.0000 C   0  0  1  0  0  0  0  0  0  0  0  0
    3.4099   -1.6948    0.0000 C   0  0  0  0  0  0  0  0  0  0  0  0
    2.7457   -0.5345    0.0000 C   0  0  0  0  0  0  0  0  0  0  0  0
    3.5152   -0.8676    0.0000 C   0  0  1  0  0  0  0  0  0  0  0  0
    4.2070   -0.3098    0.0000 N   0  0  0  0  0  0  0  0  0  0  0  0
    2.8006   -3.3210    0.0000 O   0  0  0  0  0  0  0  0  0  0  0  0
    0.1071   -1.6488    0.0000 C   0  0  0  0  0  0  0  0  0  0  0  0
    0.8951   -1.7263    0.0000 C   0  0  0  0  0  0  0  0  0  0  0  0
    1.0285   -0.2974    0.0000 O   0  0  0  0  0  0  0  0  0  0  0  0
    1.4132   -1.0708    0.0000 C   0  0  0  0  0  0  0  0  0  0  0  0
    4.9343   -0.8706    0.0000 C   0  0  0  0  0  0  0  0  0  0  0  0
   10.6623   -0.8736    0.0000 C   0  0  0  0  0  0  0  0  0  0  0  0
    9.9383   -4.5848    0.0000 C   0  0  0  0  0  0  0  0  0  0  0  0
  1  2  1  0  0  0  0
  1 18  1  0  0  0  0
  3  4  2  0  0  0  0
  4 12  1  0  0  0  0
  5  3  1  0  0  0  0
  6  7  1  0  0  0  0
  6  5  2  0  0  0  0
  7 34  2  0  0  0  0
  8  9  2  0  0  0  0
  9 10  1  0  0  0  0
  9  5  1  0  0  0  0
 10 11  2  0  0  0  0
 11  4  1  0  0  0  0
 12  1  2  0  0  0  0
 13 12  1  0  0  0  0
 13 15  2  0  0  0  0
 14 13  1  0  0  0  0
 15 16  1  0  0  0  0
 17 18  1  0  0  0  0
 17 36  1  0  0  0  0
 18 19  2  0  0  0  0
 19 15  1  0  0  0  0
 20 21  1  0  0  0  0
 21 22  1  0  0  0  0
 24 23  1  0  0  0  0
 23 26  1  0  0  0  0
 24 25  1  0  0  0  0
 24 21  1  1  0  0  0
 27 26  1  0  0  0  0
 27 28  1  1  0  0  0
 27 25  1  0  0  0  0
 29 21  1  0  0  0  0
 30 31  2  0  0  0  0
 32 33  2  0  0  0  0
 33 23  1  0  0  0  0
 33 31  1  0  0  0  0
 34 28  1  0  0  0  0
 34  8  1  0  0  0  0
 35 16  1  0  0  0  0
M  END
> <ID>
SCHEMBL21150982

> <InChIKey>
OYWQQQRPEKWQJK-JXFKEZNVSA-N

> <MW>
531.43

> <Series_Name>
Series_15

$$$$
SCHEMBL21151687
  Mrv1719007191902152D 0   0.00000     0.00000     0

 38 41  0  0  1  0              1 V2000 
    1.4933   -2.9499    0.0000 C   0  0  0  0  0  0  0  0  0  0  0  0
    2.2164   -3.3610    0.0000 C   0  0  0  0  0  0  0  0  0  0  0  0
    1.4922   -2.1193    0.0000 C   0  0  0  0  0  0  0  0  0  0  0  0
    0.7694   -1.7000    0.0000 O   0  0  0  0  0  0  0  0  0  0  0  0
    2.2640   -0.8713    0.0000 Cl  0  0  0  0  0  0  0  0  0  0  0  0
    2.2103   -1.7092    0.0000 C   0  0  0  0  0  0  0  0  0  0  0  0
    4.3518   -0.4736    0.0000 C   0  0  0  0  0  0  0  0  0  0  0  0
    5.0850   -0.8780    0.0000 C   0  0  0  0  0  0  0  0  0  0  0  0
    5.7950   -0.4467    0.0000 N   0  0  0  0  0  0  0  0  0  0  0  0
    5.0790   -1.7095    0.0000 C   0  0  0  0  0  0  0  0  0  0  0  0
    5.7985   -2.1168    0.0000 C   0  0  0  0  0  0  0  0  0  0  0  0
    6.5022   -1.6876    0.0000 N   0  0  0  0  0  0  0  0  0  0  0  0
    4.3518   -2.1160    0.0000 C   0  0  0  0  0  0  0  0  0  0  0  0
    3.6513   -1.7088    0.0000 C   0  0  0  0  0  0  0  0  0  0  0  0
    2.9370   -2.1201    0.0000 C   0  0  0  0  0  0  0  0  0  0  0  0
    2.9314   -2.9487    0.0000 C   0  0  0  0  0  0  0  0  0  0  0  0
    3.7034   -3.3531    0.0000 Cl  0  0  0  0  0  0  0  0  0  0  0  0
    2.1964   -4.1818    0.0000 O   0  0  0  0  0  0  0  0  0  0  0  0
    3.6570   -0.8736    0.0000 C   0  0  0  0  0  0  0  0  0  0  0  0
    7.9598   -0.8803    0.0000 C   0  0  1  0  0  0  0  0  0  0  0  0
    7.2034   -0.3102    0.0000 N   0  0  0  0  0  0  0  0  0  0  0  0
    8.6886   -0.5521    0.0000 C   0  0  0  0  0  0  0  0  0  0  0  0
    9.2527   -1.1541    0.0000 C   0  0  1  0  0  0  0  0  0  0  0  0
   10.0637   -1.1043    0.0000 C   0  0  0  0  0  0  0  0  0  0  0  0
   10.4561   -1.4852    0.0000 C   0  0  0  0  0  0  0  0  0  0  0  0
   10.8485   -1.8660    0.0000 N   0  0  0  0  0  0  0  0  0  0  0  0
    8.8351   -1.8613    0.0000 N   0  0  0  0  0  0  0  0  0  0  0  0
    8.0448   -1.7001    0.0000 C   0  0  0  0  0  0  0  0  0  0  0  0
    6.5185   -0.8769    0.0000 C   0  0  0  0  0  0  0  0  0  0  0  0
    1.4872   -4.6017    0.0000 C   0  0  0  0  0  0  0  0  0  0  0  0
    9.1376   -2.3169    0.0000 C   0  0  0  0  0  0  0  0  0  0  0  0
    8.8943   -2.8065    0.0000 O   0  0  0  0  0  0  0  0  0  0  0  0
    9.6833   -2.2826    0.0000 O   0  0  0  0  0  0  0  0  0  0  0  0
    9.9858   -2.7382    0.0000 C   0  0  0  0  0  0  0  0  0  0  0  0
   10.4755   -2.9814    0.0000 C   0  0  0  0  0  0  0  0  0  0  0  0
   10.4413   -2.4357    0.0000 C   0  0  0  0  0  0  0  0  0  0  0  0
    9.7425   -3.2279    0.0000 C   0  0  0  0  0  0  0  0  0  0  0  0
    0.0141   -2.1510    0.0000 C   0  0  0  0  0  0  0  0  0  0  0  0
  1  2  1  0  0  0  0
  2 16  2  0  0  0  0
  3  1  2  0  0  0  0
  3  6  1  0  0  0  0
  4  3  1  0  0  0  0
  5  6  1  0  0  0  0
  6 15  2  0  0  0  0
  7  8  1  0  0  0  0
  8  9  1  0  0  0  0
  9 29  2  0  0  0  0
 10  8  2  0  0  0  0
 10 11  1  0  0  0  0
 11 12  2  0  0  0  0
 13 10  1  0  0  0  0
 14 13  2  0  0  0  0
 14 19  1  0  0  0  0
 15 14  1  0  0  0  0
 16 15  1  0  0  0  0
 16 17  1  0  0  0  0
 18  2  1  0  0  0  0
 19  7  2  0  0  0  0
 20 21  1  1  0  0  0
 20 28  1  0  0  0  0
 23 22  1  0  0  0  0
 20 22  1  0  0  0  0
 23 24  1  1  0  0  0
 24 25  1  0  0  0  0
 25 26  3  0  0  0  0
 23 27  1  0  0  0  0
 27 31  1  0  0  0  0
 28 27  1  0  0  0  0
 29 21  1  0  0  0  0
 29 12  1  0  0  0  0
 30 18  1  0  0  0  0
 31 32  2  0  0  0  0
 31 33  1  0  0  0  0
 33 34  1  0  0  0  0
 34 35  1  0  0  0  0
 34 36  1  0  0  0  0
 34 37  1  0  0  0  0
 38  4  1  0  0  0  0
M  END
> <ID>
SCHEMBL21151687

> <InChIKey>
UQFHCRLMSFSGCZ-ZWKOTPCHSA-N

> <MW>
558.46

> <Series_Name>
Series_15

$$$$
SCHEMBL21151688
  Mrv1719007191902152D 0   0.00000     0.00000     0

 31 34  0  0  1  0              1 V2000 
    1.4892   -2.9225    0.0000 C   0  0  0  0  0  0  0  0  0  0  0  0
    2.2028   -3.3470    0.0000 C   0  0  0  0  0  0  0  0  0  0  0  0
    0.7655   -1.6914    0.0000 O   0  0  0  0  0  0  0  0  0  0  0  0
    1.4886   -2.1118    0.0000 C   0  0  0  0  0  0  0  0  0  0  0  0
    2.2027   -1.6986    0.0000 C   0  0  0  0  0  0  0  0  0  0  0  0
    2.2587   -0.8669    0.0000 Cl  0  0  0  0  0  0  0  0  0  0  0  0
    2.9222   -2.1113    0.0000 C   0  0  0  0  0  0  0  0  0  0  0  0
    3.6368   -1.7034    0.0000 C   0  0  0  0  0  0  0  0  0  0  0  0
    5.0587   -0.8771    0.0000 C   0  0  0  0  0  0  0  0  0  0  0  0
    5.7656   -0.4568    0.0000 N   0  0  0  0  0  0  0  0  0  0  0  0
    5.0393   -1.7045    0.0000 C   0  0  0  0  0  0  0  0  0  0  0  0
    5.7640   -2.1077    0.0000 C   0  0  0  0  0  0  0  0  0  0  0  0
    6.4693   -1.6914    0.0000 N   0  0  0  0  0  0  0  0  0  0  0  0
    4.3388   -2.1108    0.0000 C   0  0  0  0  0  0  0  0  0  0  0  0
    2.9203   -2.9372    0.0000 C   0  0  0  0  0  0  0  0  0  0  0  0
    3.6847   -3.3361    0.0000 Cl  0  0  0  0  0  0  0  0  0  0  0  0
    2.1852   -4.1606    0.0000 O   0  0  0  0  0  0  0  0  0  0  0  0
    4.3384   -0.4693    0.0000 C   0  0  0  0  0  0  0  0  0  0  0  0
    3.6437   -0.8736    0.0000 C   0  0  0  0  0  0  0  0  0  0  0  0
    7.9052   -0.8782    0.0000 C   0  0  1  0  0  0  0  0  0  0  0  0
    7.1669   -0.3148    0.0000 N   0  0  0  0  0  0  0  0  0  0  0  0
    8.6560   -0.5440    0.0000 C   0  0  0  0  0  0  0  0  0  0  0  0
    9.1976   -1.1456    0.0000 C   0  0  0  0  0  0  0  0  0  0  0  0
   10.0583   -0.9938    0.0000 C   0  0  0  0  0  0  0  0  0  0  0  0
   10.4831   -1.3374    0.0000 C   0  0  0  0  0  0  0  0  0  0  0  0
   10.9077   -1.6810    0.0000 N   0  0  0  0  0  0  0  0  0  0  0  0
    8.9138   -1.8519    0.0000 N   0  0  0  0  0  0  0  0  0  0  0  0
    7.9991   -1.6886    0.0000 C   0  0  0  0  0  0  0  0  0  0  0  0
    6.4855   -0.8728    0.0000 C   0  0  0  0  0  0  0  0  0  0  0  0
    1.5044   -4.5661    0.0000 C   0  0  0  0  0  0  0  0  0  0  0  0
    0.0367   -2.1298    0.0000 C   0  0  0  0  0  0  0  0  0  0  0  0
  1  2  1  0  0  0  0
  2 15  2  0  0  0  0
  3  4  1  0  0  0  0
  4  1  2  0  0  0  0
  5  4  1  0  0  0  0
  5  7  2  0  0  0  0
  6  5  1  0  0  0  0
  7  8  1  0  0  0  0
  8 14  2  0  0  0  0
  8 19  1  0  0  0  0
  9 10  1  0  0  0  0
 10 29  2  0  0  0  0
 11  9  2  0  0  0  0
 11 12  1  0  0  0  0
 12 13  2  0  0  0  0
 14 11  1  0  0  0  0
 15  7  1  0  0  0  0
 15 16  1  0  0  0  0
 17  2  1  0  0  0  0
 18  9  1  0  0  0  0
 19 18  2  0  0  0  0
 20 21  1  1  0  0  0
 20 22  1  0  0  0  0
 20 28  1  0  0  0  0
 22 23  1  0  0  0  0
 23 24  1  0  0  0  0
 24 25  1  0  0  0  0
 25 26  3  0  0  0  0
 27 23  1  0  0  0  0
 27 28  1  0  0  0  0
 29 21  1  0  0  0  0
 29 13  1  0  0  0  0
 30 17  1  0  0  0  0
 31  3  1  0  0  0  0
M  END
> <ID>
SCHEMBL21151688

> <InChIKey>
VAPOPAMYSCSCGP-LOACHALJSA-N

> <MW>
458.34

> <Series_Name>
Series_15

$$$$
SCHEMBL21151825
  Mrv1719007191902522D 0   0.00000     0.00000     0

 36 39  0  0  1  0              1 V2000 
    9.0823   -2.8361    0.0000 C   0  0  0  0  0  0  0  0  0  0  0  0
    9.7840   -3.2414    0.0000 C   0  0  0  0  0  0  0  0  0  0  0  0
    8.2651   -3.2353    0.0000 Cl  0  0  0  0  0  0  0  0  0  0  0  0
    8.3604   -1.5986    0.0000 C   0  0  0  0  0  0  0  0  0  0  0  0
    9.0850   -2.0061    0.0000 C   0  0  0  0  0  0  0  0  0  0  0  0
    6.9506   -1.6021    0.0000 C   0  0  0  0  0  0  0  0  0  0  0  0
    7.6619   -1.9978    0.0000 C   0  0  0  0  0  0  0  0  0  0  0  0
    6.2216   -2.0032    0.0000 C   0  0  0  0  0  0  0  0  0  0  0  0
    5.5071   -1.5815    0.0000 N   0  0  0  0  0  0  0  0  0  0  0  0
    6.2272   -0.3389    0.0000 N   0  0  0  0  0  0  0  0  0  0  0  0
    6.9430   -0.7725    0.0000 C   0  0  0  0  0  0  0  0  0  0  0  0
    7.6534   -0.3600    0.0000 C   0  0  0  0  0  0  0  0  0  0  0  0
    9.7859   -1.5974    0.0000 C   0  0  0  0  0  0  0  0  0  0  0  0
    9.8819   -0.7641    0.0000 Cl  0  0  0  0  0  0  0  0  0  0  0  0
   10.5076   -2.0082    0.0000 C   0  0  0  0  0  0  0  0  0  0  0  0
   11.2119   -1.5815    0.0000 O   0  0  0  0  0  0  0  0  0  0  0  0
    9.7857   -4.0527    0.0000 O   0  0  0  0  0  0  0  0  0  0  0  0
   10.5041   -2.8271    0.0000 C   0  0  0  0  0  0  0  0  0  0  0  0
    8.3576   -0.7736    0.0000 C   0  0  0  0  0  0  0  0  0  0  0  0
    2.9003   -2.4831    0.0000 C   0  0  0  0  0  0  0  0  0  0  0  0
    3.2619   -3.2195    0.0000 O   0  0  0  0  0  0  0  0  0  0  0  0
    2.0193   -2.4994    0.0000 O   0  0  0  0  0  0  0  0  0  0  0  0
    3.1975   -1.7674    0.0000 C   0  0  1  0  0  0  0  0  0  0  0  0
    2.7818   -1.0308    0.0000 N   0  0  0  0  0  0  0  0  0  0  0  0
    3.3344   -0.4448    0.0000 C   0  0  0  0  0  0  0  0  0  0  0  0
    4.0855   -0.7653    0.0000 C   0  0  1  0  0  0  0  0  0  0  0  0
    4.8010   -0.3389    0.0000 N   0  0  0  0  0  0  0  0  0  0  0  0
    3.9898   -1.5881    0.0000 C   0  0  0  0  0  0  0  0  0  0  0  0
    1.6097   -0.1977    0.0000 O   0  0  0  0  0  0  0  0  0  0  0  0
    2.0180   -0.9638    0.0000 C   0  0  0  0  0  0  0  0  0  0  0  0
    1.4778   -1.6346    0.0000 C   0  0  0  0  0  0  0  0  0  0  0  0
    0.4236   -1.4827    0.0000 C   0  0  0  0  0  0  0  0  0  0  0  0
    5.5245   -0.7663    0.0000 C   0  0  0  0  0  0  0  0  0  0  0  0
   11.3389   -0.7625    0.0000 C   0  0  0  0  0  0  0  0  0  0  0  0
   10.6258   -4.4621    0.0000 C   0  0  0  0  0  0  0  0  0  0  0  0
    2.6265   -3.9256    0.0000 C   0  0  0  0  0  0  0  0  0  0  0  0
  1  2  1  0  0  0  0
  1  5  2  0  0  0  0
  2 18  2  0  0  0  0
  3  1  1  0  0  0  0
  4  5  1  0  0  0  0
  4 19  1  0  0  0  0
  5 13  1  0  0  0  0
  6  7  1  0  0  0  0
  7  4  2  0  0  0  0
  8  6  2  0  0  0  0
  8  9  1  0  0  0  0
  9 33  2  0  0  0  0
 10 11  2  0  0  0  0
 11 12  1  0  0  0  0
 11  6  1  0  0  0  0
 12 19  2  0  0  0  0
 13 15  2  0  0  0  0
 14 13  1  0  0  0  0
 15 16  1  0  0  0  0
 17  2  1  0  0  0  0
 17 35  1  0  0  0  0
 18 15  1  0  0  0  0
 20 21  1  0  0  0  0
 21 36  1  0  0  0  0
 22 20  2  0  0  0  0
 23 24  1  0  0  0  0
 23 20  1  1  0  0  0
 25 24  1  0  0  0  0
 26 25  1  0  0  0  0
 26 27  1  1  0  0  0
 26 28  1  0  0  0  0
 23 28  1  0  0  0  0
 29 30  2  0  0  0  0
 30 24  1  0  0  0  0
 31 30  1  0  0  0  0
 32 31  2  0  0  0  0
 33 27  1  0  0  0  0
 33 10  1  0  0  0  0
 34 16  1  0  0  0  0
M  END
> <ID>
SCHEMBL21151825

> <InChIKey>
RDPMIYQCWHDUTN-RDJZCZTQSA-N

> <MW>
531.39

> <Series_Name>
Series_15

$$$$
SCHEMBL21151937
  Mrv1719007191903202D 0   0.00000     0.00000     0

 39 42  0  0  1  0              1 V2000 
    8.5681   -3.0028    0.0000 C   0  0  0  0  0  0  0  0  0  0  0  0
    9.2778   -3.4104    0.0000 C   0  0  0  0  0  0  0  0  0  0  0  0
    7.7484   -3.4111    0.0000 Cl  0  0  0  0  0  0  0  0  0  0  0  0
    7.8556   -1.7621    0.0000 C   0  0  0  0  0  0  0  0  0  0  0  0
    8.5671   -2.1728    0.0000 C   0  0  0  0  0  0  0  0  0  0  0  0
    6.4245   -1.7498    0.0000 C   0  0  0  0  0  0  0  0  0  0  0  0
    7.1346   -2.1723    0.0000 C   0  0  0  0  0  0  0  0  0  0  0  0
    5.7020   -2.1781    0.0000 C   0  0  0  0  0  0  0  0  0  0  0  0
    4.9822   -1.7444    0.0000 N   0  0  0  0  0  0  0  0  0  0  0  0
    5.6958   -0.5022    0.0000 N   0  0  0  0  0  0  0  0  0  0  0  0
    6.4311   -0.9366    0.0000 C   0  0  0  0  0  0  0  0  0  0  0  0
    7.1289   -0.5257    0.0000 C   0  0  0  0  0  0  0  0  0  0  0  0
    7.8549   -0.9371    0.0000 C   0  0  0  0  0  0  0  0  0  0  0  0
    9.2791   -1.7637    0.0000 C   0  0  0  0  0  0  0  0  0  0  0  0
    9.3607   -0.9266    0.0000 Cl  0  0  0  0  0  0  0  0  0  0  0  0
    9.9953   -2.1737    0.0000 C   0  0  0  0  0  0  0  0  0  0  0  0
   10.6913   -1.7444    0.0000 O   0  0  0  0  0  0  0  0  0  0  0  0
    9.9936   -2.9995    0.0000 C   0  0  0  0  0  0  0  0  0  0  0  0
    9.2640   -4.2289    0.0000 O   0  0  0  0  0  0  0  0  0  0  0  0
    3.5621   -0.9321    0.0000 C   0  0  1  0  0  0  0  0  0  0  0  0
    2.7978   -0.6031    0.0000 C   0  0  0  0  0  0  0  0  0  0  0  0
    2.2529   -1.2088    0.0000 C   0  0  1  0  0  0  0  0  0  0  0  0
    2.6563   -1.9162    0.0000 N   0  0  0  0  0  0  0  0  0  0  0  0
    1.4570   -1.0309    0.0000 C   0  0  0  0  0  0  0  0  0  0  0  0
    0.8590   -1.5726    0.0000 O   0  0  0  0  0  0  0  0  0  0  0  0
    1.2290   -0.1850    0.0000 O   0  0  0  0  0  0  0  0  0  0  0  0
    4.2487   -0.3568    0.0000 N   0  0  0  0  0  0  0  0  0  0  0  0
    3.4663   -1.7557    0.0000 C   0  0  0  0  0  0  0  0  0  0  0  0
    4.9971   -0.9342    0.0000 C   0  0  0  0  0  0  0  0  0  0  0  0
    9.9910   -4.6513    0.0000 C   0  0  0  0  0  0  0  0  0  0  0  0
    2.2973   -2.3271    0.0000 C   0  0  0  0  0  0  0  0  0  0  0  0
    1.7619   -2.2216    0.0000 O   0  0  0  0  0  0  0  0  0  0  0  0
    2.4736   -2.8435    0.0000 O   0  0  0  0  0  0  0  0  0  0  0  0
    3.0089   -2.9490    0.0000 C   0  0  0  0  0  0  0  0  0  0  0  0
    3.5252   -2.7727    0.0000 C   0  0  0  0  0  0  0  0  0  0  0  0
    3.1144   -2.4136    0.0000 C   0  0  0  0  0  0  0  0  0  0  0  0
    3.1852   -3.4653    0.0000 C   0  0  0  0  0  0  0  0  0  0  0  0
   11.4211   -2.1799    0.0000 C   0  0  0  0  0  0  0  0  0  0  0  0
    0.0658   -1.3662    0.0000 C   0  0  0  0  0  0  0  0  0  0  0  0
  1  2  2  0  0  0  0
  1  5  1  0  0  0  0
  2 19  1  0  0  0  0
  2 18  1  0  0  0  0
  3  1  1  0  0  0  0
  4  5  1  0  0  0  0
  4 13  1  0  0  0  0
  5 14  2  0  0  0  0
  6  7  1  0  0  0  0
  7  4  2  0  0  0  0
  8  9  1  0  0  0  0
  8  6  2  0  0  0  0
  9 29  2  0  0  0  0
 10 11  2  0  0  0  0
 11 12  1  0  0  0  0
 11  6  1  0  0  0  0
 12 13  2  0  0  0  0
 14 15  1  0  0  0  0
 16 17  1  0  0  0  0
 16 14  1  0  0  0  0
 17 38  1  0  0  0  0
 18 16  2  0  0  0  0
 19 30  1  0  0  0  0
 20 21  1  0  0  0  0
 20 27  1  1  0  0  0
 20 28  1  0  0  0  0
 22 21  1  0  0  0  0
 22 23  1  0  0  0  0
 22 24  1  1  0  0  0
 23 31  1  0  0  0  0
 24 25  1  0  0  0  0
 26 24  2  0  0  0  0
 28 23  1  0  0  0  0
 29 27  1  0  0  0  0
 29 10  1  0  0  0  0
 31 32  2  0  0  0  0
 31 33  1  0  0  0  0
 33 34  1  0  0  0  0
 34 35  1  0  0  0  0
 34 36  1  0  0  0  0
 34 37  1  0  0  0  0
 39 25  1  0  0  0  0
M  END
> <ID>
SCHEMBL21151937

> <InChIKey>
CLWVQRRFPLVBQP-SJLPKXTDSA-N

> <MW>
577.46

> <Series_Name>
Series_15

$$$$
SCHEMBL21153315
  Mrv1719007191907452D 0   0.00000     0.00000     0

 44 48  0  0  0  0              1 V2000 
    1.0577   -0.5062    0.0000 O   0  0  0  0  0  0  0  0  0  0  0  0
    0.0907   -1.8284    0.0000 C   0  0  0  0  0  0  0  0  0  0  0  0
    9.2705   -1.0804    0.0000 Cl  0  0  0  0  0  0  0  0  0  0  0  0
   11.3181   -2.3120    0.0000 C   0  0  0  0  0  0  0  0  0  0  0  0
    2.8560   -5.0017    0.0000 C   0  0  0  0  0  0  0  0  0  0  0  0
    9.8976   -4.8506    0.0000 C   0  0  0  0  0  0  0  0  0  0  0  0
    7.7720   -1.8939    0.0000 C   0  0  0  0  0  0  0  0  0  0  0  0
    7.7367   -1.0124    0.0000 C   0  0  0  0  0  0  0  0  0  0  0  0
    7.0416   -0.6195    0.0000 C   0  0  0  0  0  0  0  0  0  0  0  0
    6.3465   -1.0376    0.0000 C   0  0  0  0  0  0  0  0  0  0  0  0
    3.4906   -1.0376    0.0000 C   0  0  2  0  0  0  0  0  0  0  0  0
    2.7653   -0.6951    0.0000 C   0  0  0  0  0  0  0  0  0  0  0  0
    4.9161   -1.0376    0.0000 C   0  0  0  0  0  0  0  0  0  0  0  0
    1.3348   -1.2643    0.0000 C   0  0  0  0  0  0  0  0  0  0  0  0
    3.4151   -1.8738    0.0000 C   0  0  0  0  0  0  0  0  0  0  0  0
    2.6091   -2.0702    0.0000 C   0  0  1  0  0  0  0  0  0  0  0  0
    6.3465   -1.8939    0.0000 C   0  0  0  0  0  0  0  0  0  0  0  0
    0.9066   -1.9191    0.0000 C   0  0  0  0  0  0  0  0  0  0  0  0
    9.1874   -1.8788    0.0000 C   0  0  0  0  0  0  0  0  0  0  0  0
    9.8976   -2.3221    0.0000 C   0  0  0  0  0  0  0  0  0  0  0  0
    8.4772   -2.3221    0.0000 C   0  0  0  0  0  0  0  0  0  0  0  0
    5.6364   -2.3120    0.0000 C   0  0  0  0  0  0  0  0  0  0  0  0
    7.0719   -2.3120    0.0000 C   0  0  0  0  0  0  0  0  0  0  0  0
    8.4722   -3.1632    0.0000 C   0  0  0  0  0  0  0  0  0  0  0  0
    9.8976   -3.1733    0.0000 C   0  0  0  0  0  0  0  0  0  0  0  0
    9.1874   -3.5913    0.0000 C   0  0  0  0  0  0  0  0  0  0  0  0
    2.4328   -4.3217    0.0000 C   0  0  0  0  0  0  0  0  0  0  0  0
    2.3221   -2.8207    0.0000 C   0  0  0  0  0  0  0  0  0  0  0  0
    1.4658   -2.9768    0.0000 O   0  0  0  0  0  0  0  0  0  0  0  0
    2.2138   -1.3751    0.0000 N   0  0  0  0  0  0  0  0  0  0  0  0
    4.2462   -0.4382    0.0000 N   0  0  0  0  0  0  0  0  0  0  0  0
   10.6154   -1.9266    0.0000 O   0  0  0  0  0  0  0  0  0  0  0  0
    9.1799   -4.4652    0.0000 O   0  0  0  0  0  0  0  0  0  0  0  0
    2.7728   -3.5586    0.0000 O   0  0  0  0  0  0  0  0  0  0  0  0
    5.6288   -0.6573    0.0000 N   0  0  0  0  0  0  0  0  0  0  0  0
    4.9110   -1.9266    0.0000 N   0  0  0  0  0  0  0  0  0  0  0  0
    5.4433   -4.8410    0.0000 N   0  0  0  0  0  0  0  0  0  0  0  0
    6.1649   -4.4413    0.0000 C   0  0  0  0  0  0  0  0  0  0  0  0
    6.8720   -4.8664    0.0000 N   0  0  0  0  0  0  0  0  0  0  0  0
    7.5936   -4.4666    0.0000 C   0  0  0  0  0  0  0  0  0  0  0  0
    8.3007   -4.8917    0.0000 O   0  0  0  0  0  0  0  0  0  0  0  0
    7.6083   -3.6417    0.0000 N   0  0  0  0  0  0  0  0  0  0  0  0
    6.9013   -3.2166    0.0000 C   0  0  0  0  0  0  0  0  0  0  0  0
    6.1796   -3.6164    0.0000 C   0  0  0  0  0  0  0  0  0  0  0  0
  7  8  1  0  0  0  0
  8  9  2  0  0  0  0
  9 10  1  0  0  0  0
 11 12  1  0  0  0  0
  1 14  2  0  0  0  0
 11 15  1  0  0  0  0
 16 15  1  0  0  0  0
 10 17  1  0  0  0  0
 14 18  1  0  0  0  0
  2 18  2  0  0  0  0
  3 19  1  0  0  0  0
 19 20  2  0  0  0  0
 19 21  1  0  0  0  0
  7 21  1  0  0  0  0
 17 22  2  0  0  0  0
  7 23  2  0  0  0  0
 17 23  1  0  0  0  0
 21 24  2  0  0  0  0
 20 25  1  0  0  0  0
 25 26  2  0  0  0  0
 24 26  1  0  0  0  0
  5 27  1  0  0  0  0
 16 28  1  1  0  0  0
 28 29  2  0  0  0  0
 12 30  1  0  0  0  0
 14 30  1  0  0  0  0
 16 30  1  0  0  0  0
 11 31  1  1  0  0  0
 13 31  1  0  0  0  0
  4 32  1  0  0  0  0
 20 32  1  0  0  0  0
  6 33  1  0  0  0  0
 26 33  1  0  0  0  0
 27 34  1  0  0  0  0
 28 34  1  0  0  0  0
 10 35  2  0  0  0  0
 13 35  1  0  0  0  0
 13 36  2  0  0  0  0
 22 36  1  0  0  0  0
 42 24  1  0  0  0  0
 37 38  1  0  0  0  0
 38 39  2  0  0  0  0
 39 40  1  0  0  0  0
 40 41  2  0  0  0  0
 40 42  1  0  0  0  0
 42 43  1  0  0  0  0
 43 44  2  0  0  0  0
 38 44  1  0  0  0  0
M  END
> <ID>
SCHEMBL21153315

> <InChIKey>
LBCZORGVUKUZKK-ICSRJNTNSA-N

> <MW>
620.06

> <Series_Name>
Series_15

$$$$
SCHEMBL21153322
  Mrv1719007191907462D 0   0.00000     0.00000     0

 41 44  0  0  0  0              1 V2000 
    1.7943   -0.5171    0.0000 O   0  0  0  0  0  0  0  0  0  0  0  0
    0.5015   -1.0499    0.0000 C   0  0  0  0  0  0  0  0  0  0  0  0
   10.0529   -1.0969    0.0000 Cl  0  0  0  0  0  0  0  0  0  0  0  0
    0.0000   -1.7394    0.0000 C   0  0  0  0  0  0  0  0  0  0  0  0
    0.3447   -2.4917    0.0000 C   0  0  0  0  0  0  0  0  0  0  0  0
    8.3134   -3.5495    0.0000 C   0  0  0  0  0  0  0  0  0  0  0  0
   10.6405   -4.7796    0.0000 C   0  0  0  0  0  0  0  0  0  0  0  0
    2.8208   -4.9677    0.0000 C   0  0  0  0  0  0  0  0  0  0  0  0
    8.4937   -1.8701    0.0000 C   0  0  0  0  0  0  0  0  0  0  0  0
    8.4937   -1.0656    0.0000 C   0  0  0  0  0  0  0  0  0  0  0  0
    7.8042   -0.6425    0.0000 C   0  0  0  0  0  0  0  0  0  0  0  0
    7.0729   -1.0447    0.0000 C   0  0  0  0  0  0  0  0  0  0  0  0
    7.0833   -1.8701    0.0000 C   0  0  0  0  0  0  0  0  0  0  0  0
    4.2311   -1.0604    0.0000 C   0  0  0  0  0  0  0  0  0  0  0  0
    3.4789   -0.7209    0.0000 C   0  0  0  0  0  0  0  0  0  0  0  0
    2.1783   -1.2276    0.0000 C   0  0  0  0  0  0  0  0  0  0  0  0
    5.6572   -1.0447    0.0000 C   0  0  0  0  0  0  0  0  0  0  0  0
    0.8071   -1.8218    0.0000 C   0  0  0  0  0  0  0  0  0  0  0  0
    4.1528   -1.8649    0.0000 C   0  0  0  0  0  0  0  0  0  0  0  0
    3.3484   -2.0477    0.0000 C   0  0  0  0  0  0  0  0  0  0  0  0
    9.9041   -1.8701    0.0000 C   0  0  0  0  0  0  0  0  0  0  0  0
    6.3781   -2.2880    0.0000 C   0  0  0  0  0  0  0  0  0  0  0  0
    7.8042   -2.2880    0.0000 C   0  0  0  0  0  0  0  0  0  0  0  0
    9.1988   -2.2985    0.0000 C   0  0  0  0  0  0  0  0  0  0  0  0
   10.6249   -2.2985    0.0000 C   0  0  0  0  0  0  0  0  0  0  0  0
    3.0402   -2.7268    0.0000 C   0  0  0  0  0  0  0  0  0  0  0  0
    9.1988   -3.1080    0.0000 C   0  0  0  0  0  0  0  0  0  0  0  0
   10.6249   -3.1028    0.0000 C   0  0  0  0  0  0  0  0  0  0  0  0
    9.9041   -3.5364    0.0000 C   0  0  0  0  0  0  0  0  0  0  0  0
    2.4133   -3.9177    0.0000 O   0  0  0  0  0  0  0  0  0  0  0  0
    3.9256   -4.5916    0.0000 O   0  0  0  0  0  0  0  0  0  0  0  0
   12.1059   -2.3663    0.0000 C   0  0  0  0  0  0  0  0  0  0  0  0
    4.9442   -0.6738    0.0000 N   0  0  0  0  0  0  0  0  0  0  0  0
    6.3546   -0.6738    0.0000 N   0  0  0  0  0  0  0  0  0  0  0  0
    2.9305   -1.3634    0.0000 N   0  0  0  0  0  0  0  0  0  0  0  0
    5.6493   -1.9119    0.0000 N   0  0  0  0  0  0  0  0  0  0  0  0
    3.6983   -3.5025    0.0000 N   0  0  0  0  0  0  0  0  0  0  0  0
    3.1655   -4.2547    0.0000 S   0  0  0  0  0  0  0  0  0  0  0  0
   11.3379   -1.9040    0.0000 O   0  0  0  0  0  0  0  0  0  0  0  0
    1.6455   -1.9353    0.0000 O   0  0  0  0  0  0  0  0  0  0  0  0
    9.9119   -4.3879    0.0000 O   0  0  0  0  0  0  0  0  0  0  0  0
  9 10  1  0  0  0  0
 10 11  2  0  0  0  0
 11 12  1  0  0  0  0
 12 13  1  0  0  0  0
 14 15  1  0  0  0  0
  1 16  2  0  0  0  0
  2 18  1  0  0  0  0
  4 18  1  0  0  0  0
  5 18  1  0  0  0  0
 14 19  1  0  0  0  0
 19 20  1  0  0  0  0
  3 21  1  0  0  0  0
 13 22  2  0  0  0  0
  9 23  2  0  0  0  0
 13 23  1  0  0  0  0
  9 24  1  0  0  0  0
 21 24  1  0  0  0  0
 21 25  2  0  0  0  0
 20 26  1  0  0  0  0
 24 27  2  0  0  0  0
  6 27  1  0  0  0  0
 25 28  1  0  0  0  0
 28 29  2  0  0  0  0
 27 29  1  0  0  0  0
 14 33  1  0  0  0  0
 17 33  1  0  0  0  0
 12 34  2  0  0  0  0
 17 34  1  0  0  0  0
 15 35  1  0  0  0  0
 16 35  1  0  0  0  0
 20 35  1  0  0  0  0
 17 36  2  0  0  0  0
 22 36  1  0  0  0  0
  8 37  1  0  0  0  0
 26 37  1  0  0  0  0
 30 38  2  0  0  0  0
 31 38  1  0  0  0  0
 37 38  1  0  0  0  0
 25 39  1  0  0  0  0
 32 39  1  0  0  0  0
 16 40  1  0  0  0  0
 18 40  1  0  0  0  0
  7 41  1  0  0  0  0
 29 41  1  0  0  0  0
M  END
> <ID>
SCHEMBL21153322

> <InChIKey>
RAPQZYFYKQGBMO-UHFFFAOYSA-N

> <MW>
606.14

> <Series_Name>
Series_15

$$$$
SCHEMBL21153323
  Mrv1719007191907462D 0   0.00000     0.00000     0

 42 45  0  0  1  0              1 V2000 
    9.3163   -3.2184    0.0000 C   0  0  0  0  0  0  0  0  0  0  0  0
   10.0339   -3.6368    0.0000 C   0  0  0  0  0  0  0  0  0  0  0  0
    8.4904   -3.6445    0.0000 Cl  0  0  0  0  0  0  0  0  0  0  0  0
    9.3256   -2.3934    0.0000 C   0  0  0  0  0  0  0  0  0  0  0  0
    8.6200   -1.9713    0.0000 C   0  0  0  0  0  0  0  0  0  0  0  0
    7.2118   -1.9729    0.0000 C   0  0  0  0  0  0  0  0  0  0  0  0
    7.9107   -2.3876    0.0000 C   0  0  0  0  0  0  0  0  0  0  0  0
    6.4749   -2.3837    0.0000 C   0  0  0  0  0  0  0  0  0  0  0  0
    5.7300   -1.9835    0.0000 N   0  0  0  0  0  0  0  0  0  0  0  0
    6.4384   -0.7399    0.0000 N   0  0  0  0  0  0  0  0  0  0  0  0
    7.2057   -1.1347    0.0000 C   0  0  0  0  0  0  0  0  0  0  0  0
    8.6224   -1.1547    0.0000 C   0  0  0  0  0  0  0  0  0  0  0  0
   10.1803   -1.1590    0.0000 Cl  0  0  0  0  0  0  0  0  0  0  0  0
   10.0307   -1.9709    0.0000 C   0  0  0  0  0  0  0  0  0  0  0  0
   10.7596   -2.3906    0.0000 C   0  0  0  0  0  0  0  0  0  0  0  0
   11.4759   -1.9835    0.0000 O   0  0  0  0  0  0  0  0  0  0  0  0
   10.7527   -3.2138    0.0000 C   0  0  0  0  0  0  0  0  0  0  0  0
   10.0119   -4.4864    0.0000 O   0  0  0  0  0  0  0  0  0  0  0  0
    7.8900   -0.7462    0.0000 C   0  0  0  0  0  0  0  0  0  0  0  0
    3.0067   -1.4325    0.0000 N   0  0  0  0  0  0  0  0  0  0  0  0
    3.4548   -2.1330    0.0000 C   0  0  1  0  0  0  0  0  0  0  0  0
    4.2499   -1.9663    0.0000 C   0  0  0  0  0  0  0  0  0  0  0  0
    4.3296   -1.1457    0.0000 C   0  0  1  0  0  0  0  0  0  0  0  0
    3.5896   -0.8176    0.0000 C   0  0  0  0  0  0  0  0  0  0  0  0
    5.0296   -0.4959    0.0000 N   0  0  0  0  0  0  0  0  0  0  0  0
    3.1617   -2.9096    0.0000 C   0  0  0  0  0  0  0  0  0  0  0  0
    3.7781   -3.5892    0.0000 N   0  0  0  0  0  0  0  0  0  0  0  0
   13.9867   -2.5437    0.0000 C   0  0  0  0  0  0  0  0  0  0  0  0
   12.2471   -2.4674    0.0000 C   0  0  0  0  0  0  0  0  0  0  0  0
    0.0700   -1.8226    0.0000 C   0  0  0  0  0  0  0  0  0  0  0  0
    0.8627   -1.9177    0.0000 C   0  0  0  0  0  0  0  0  0  0  0  0
    0.5850   -1.1255    0.0000 C   0  0  0  0  0  0  0  0  0  0  0  0
    1.7159   -2.0150    0.0000 O   0  0  0  0  0  0  0  0  0  0  0  0
    0.4279   -2.5974    0.0000 C   0  0  0  0  0  0  0  0  0  0  0  0
    1.8733   -0.5825    0.0000 O   0  0  0  0  0  0  0  0  0  0  0  0
    2.1834   -1.3696    0.0000 C   0  0  0  0  0  0  0  0  0  0  0  0
    5.7802   -1.1247    0.0000 C   0  0  0  0  0  0  0  0  0  0  0  0
    3.2429   -4.3447    0.0000 S   0  0  0  0  0  0  0  0  0  0  0  0
    2.9181   -5.0850    0.0000 C   0  0  0  0  0  0  0  0  0  0  0  0
   10.7832   -4.8999    0.0000 C   0  0  0  0  0  0  0  0  0  0  0  0
    4.0141   -4.6753    0.0000 O   0  0  0  0  0  0  0  0  0  0  0  0
    2.4872   -3.9984    0.0000 O   0  0  0  0  0  0  0  0  0  0  0  0
  1  2  1  0  0  0  0
  1  4  2  0  0  0  0
  2 17  2  0  0  0  0
  3  1  1  0  0  0  0
  4 14  1  0  0  0  0
  5  4  1  0  0  0  0
  5 12  1  0  0  0  0
  6  7  1  0  0  0  0
  7  5  2  0  0  0  0
  8  9  1  0  0  0  0
  8  6  2  0  0  0  0
  9 37  2  0  0  0  0
 10 11  2  0  0  0  0
 11 19  1  0  0  0  0
 11  6  1  0  0  0  0
 13 14  1  0  0  0  0
 14 15  2  0  0  0  0
 15 16  1  0  0  0  0
 16 29  1  0  0  0  0
 17 15  1  0  0  0  0
 18  2  1  0  0  0  0
 18 40  1  0  0  0  0
 19 12  2  0  0  0  0
 21 20  1  0  0  0  0
 21 22  1  0  0  0  0
 21 26  1  1  0  0  0
 23 24  1  0  0  0  0
 23 25  1  1  0  0  0
 23 22  1  0  0  0  0
 24 20  1  0  0  0  0
 27 26  1  0  0  0  0
 29 28  1  0  0  0  0
 30 31  1  0  0  0  0
 31 33  1  0  0  0  0
 31 34  1  0  0  0  0
 32 31  1  0  0  0  0
 35 36  2  0  0  0  0
 36 20  1  0  0  0  0
 36 33  1  0  0  0  0
 37 25  1  0  0  0  0
 37 10  1  0  0  0  0
 38 39  1  0  0  0  0
 38 41  2  0  0  0  0
 38 27  1  0  0  0  0
 42 38  2  0  0  0  0
M  END
> <ID>
SCHEMBL21153323

> <InChIKey>
KXVMERPEHVRSOI-OALUTQOASA-N

> <MW>
640.58

> <Series_Name>
Series_15

$$$$
SCHEMBL21153593
  Mrv1719007191908452D 0   0.00000     0.00000     0

 33 36  0  0  0  0              1 V2000 
    1.1088   -0.4901    0.0000 O   0  0  0  0  0  0  0  0  0  0  0  0
    0.1286   -1.7838    0.0000 C   0  0  0  0  0  0  0  0  0  0  0  0
    9.3450   -1.0607    0.0000 C   0  0  0  0  0  0  0  0  0  0  0  0
   11.4262   -2.2499    0.0000 C   0  0  0  0  0  0  0  0  0  0  0  0
    7.6577   -3.5516    0.0000 C   0  0  0  0  0  0  0  0  0  0  0  0
    9.9638   -4.7408    0.0000 C   0  0  0  0  0  0  0  0  0  0  0  0
    7.8371   -1.8374    0.0000 C   0  0  0  0  0  0  0  0  0  0  0  0
    7.7621   -0.9643    0.0000 C   0  0  0  0  0  0  0  0  0  0  0  0
    7.1193   -0.6107    0.0000 C   0  0  0  0  0  0  0  0  0  0  0  0
    6.3961   -1.0072    0.0000 C   0  0  0  0  0  0  0  0  0  0  0  0
    3.5569   -1.0072    0.0000 C   0  0  2  0  0  0  0  0  0  0  0  0
    2.7963   -0.6911    0.0000 C   0  0  0  0  0  0  0  0  0  0  0  0
    3.4713   -1.8320    0.0000 C   0  0  0  0  0  0  0  0  0  0  0  0
    2.6624   -2.0088    0.0000 C   0  0  1  0  0  0  0  0  0  0  0  0
    4.9980   -1.0072    0.0000 C   0  0  0  0  0  0  0  0  0  0  0  0
    1.4088   -1.2267    0.0000 C   0  0  0  0  0  0  0  0  0  0  0  0
    6.3961   -1.8535    0.0000 C   0  0  0  0  0  0  0  0  0  0  0  0
    0.9482   -1.8803    0.0000 C   0  0  0  0  0  0  0  0  0  0  0  0
    9.2460   -1.8374    0.0000 C   0  0  0  0  0  0  0  0  0  0  0  0
    8.5496   -2.2607    0.0000 C   0  0  0  0  0  0  0  0  0  0  0  0
    7.1353   -2.2499    0.0000 C   0  0  0  0  0  0  0  0  0  0  0  0
    9.9691   -2.2446    0.0000 C   0  0  0  0  0  0  0  0  0  0  0  0
    5.7211   -2.2499    0.0000 C   0  0  0  0  0  0  0  0  0  0  0  0
    9.9638   -3.0855    0.0000 C   0  0  0  0  0  0  0  0  0  0  0  0
    9.2566   -3.4980    0.0000 C   0  0  0  0  0  0  0  0  0  0  0  0
    8.5496   -3.0910    0.0000 C   0  0  0  0  0  0  0  0  0  0  0  0
    2.4186   -2.6516    0.0000 C   0  0  0  0  0  0  0  0  0  0  0  0
    4.1856   -0.5525    0.0000 N   0  0  0  0  0  0  0  0  0  0  0  0
    9.2566   -4.3793    0.0000 O   0  0  0  0  0  0  0  0  0  0  0  0
    5.6729   -0.6348    0.0000 N   0  0  0  0  0  0  0  0  0  0  0  0
    4.9739   -1.8722    0.0000 N   0  0  0  0  0  0  0  0  0  0  0  0
    2.2419   -1.3259    0.0000 N   0  0  0  0  0  0  0  0  0  0  0  0
   10.6789   -1.8803    0.0000 O   0  0  0  0  0  0  0  0  0  0  0  0
  7  8  1  0  0  0  0
  8  9  2  0  0  0  0
  9 10  1  0  0  0  0
 11 12  1  0  0  0  0
 11 13  1  0  0  0  0
 14 13  1  0  0  0  0
  1 16  2  0  0  0  0
 10 17  1  0  0  0  0
 16 18  1  0  0  0  0
  2 18  2  0  0  0  0
  3 19  1  0  0  0  0
  7 20  1  0  0  0  0
 19 20  1  0  0  0  0
  7 21  2  0  0  0  0
 17 21  1  0  0  0  0
 19 22  2  0  0  0  0
 17 23  2  0  0  0  0
 22 24  1  0  0  0  0
 24 25  2  0  0  0  0
 20 26  2  0  0  0  0
  5 26  1  0  0  0  0
 25 26  1  0  0  0  0
 14 27  1  1  0  0  0
 11 28  1  1  0  0  0
 15 28  1  0  0  0  0
  6 29  1  0  0  0  0
 25 29  1  0  0  0  0
 10 30  2  0  0  0  0
 15 30  1  0  0  0  0
 15 31  2  0  0  0  0
 23 31  1  0  0  0  0
 12 32  1  0  0  0  0
 14 32  1  0  0  0  0
 16 32  1  0  0  0  0
  4 33  1  0  0  0  0
 22 33  1  0  0  0  0
M  END
> <ID>
SCHEMBL21153593

> <InChIKey>
UAUSUNQTTYGFQO-QRWLVFNGSA-N

> <MW>
446.551

> <Series_Name>
Series_15

$$$$
SCHEMBL21153615
  Mrv1719007191908482D 0   0.00000     0.00000     0

 33 36  0  0  0  0              1 V2000 
   14.3412   -0.4420    0.0000 C   0  0  0  0  0  0  0  0  0  0  0  0
   13.8687   -1.1278    0.0000 C   0  0  0  0  0  0  0  0  0  0  0  0
   13.9831   -1.9203    0.0000 O   0  0  0  0  0  0  0  0  0  0  0  0
   22.6701   -1.0516    0.0000 Cl  0  0  0  0  0  0  0  0  0  0  0  0
   24.7047   -2.2708    0.0000 C   0  0  0  0  0  0  0  0  0  0  0  0
   15.6366   -2.6975    0.0000 C   0  0  0  0  0  0  0  0  0  0  0  0
   20.9327   -3.5510    0.0000 Cl  0  0  0  0  0  0  0  0  0  0  0  0
   23.2873   -4.7702    0.0000 C   0  0  0  0  0  0  0  0  0  0  0  0
   14.6918   -1.2116    0.0000 C   0  0  0  0  0  0  0  0  0  0  0  0
   21.1232   -1.8339    0.0000 C   0  0  0  0  0  0  0  0  0  0  0  0
   21.1232   -1.0363    0.0000 C   0  0  0  0  0  0  0  0  0  0  0  0
   20.4374   -0.6096    0.0000 C   0  0  0  0  0  0  0  0  0  0  0  0
   19.6754   -1.0160    0.0000 C   0  0  0  0  0  0  0  0  0  0  0  0
   16.8101   -1.0160    0.0000 C   0  0  0  0  0  0  0  0  0  0  0  0
   16.0481   -0.7010    0.0000 C   0  0  0  0  0  0  0  0  0  0  0  0
   15.5046   -1.2954    0.0000 C   0  0  0  0  0  0  0  0  0  0  0  0
   18.2478   -1.0160    0.0000 C   0  0  0  0  0  0  0  0  0  0  0  0
   16.7340   -1.8288    0.0000 C   0  0  0  0  0  0  0  0  0  0  0  0
   19.6754   -1.8491    0.0000 C   0  0  0  0  0  0  0  0  0  0  0  0
   22.5557   -1.8491    0.0000 C   0  0  0  0  0  0  0  0  0  0  0  0
   21.8191   -2.2759    0.0000 C   0  0  0  0  0  0  0  0  0  0  0  0
   20.4069   -2.2708    0.0000 C   0  0  0  0  0  0  0  0  0  0  0  0
   18.9743   -2.2708    0.0000 C   0  0  0  0  0  0  0  0  0  0  0  0
   21.8242   -3.0989    0.0000 C   0  0  0  0  0  0  0  0  0  0  0  0
   23.2619   -2.2657    0.0000 C   0  0  0  0  0  0  0  0  0  0  0  0
   23.2721   -3.0939    0.0000 C   0  0  0  0  0  0  0  0  0  0  0  0
   22.5557   -3.5154    0.0000 C   0  0  0  0  0  0  0  0  0  0  0  0
   18.2504   -1.8823    0.0000 N   0  0  0  0  0  0  0  0  0  0  0  0
   17.5367   -0.5977    0.0000 N   0  0  0  0  0  0  0  0  0  0  0  0
   15.9263   -2.0574    0.0000 N   0  0  0  0  0  0  0  0  0  0  0  0
   23.9883   -1.8746    0.0000 O   0  0  0  0  0  0  0  0  0  0  0  0
   18.9591   -0.6325    0.0000 N   0  0  0  0  0  0  0  0  0  0  0  0
   22.5634   -4.3816    0.0000 O   0  0  0  0  0  0  0  0  0  0  0  0
  1  9  1  0  0  0  0
  2  9  1  0  0  0  0
  3  9  1  0  0  0  0
 10 11  1  0  0  0  0
 11 12  2  0  0  0  0
 12 13  1  0  0  0  0
 14 15  1  0  0  0  0
 15 16  1  0  0  0  0
  9 16  1  0  0  0  0
 14 18  1  0  0  0  0
 13 19  1  0  0  0  0
  4 20  1  0  0  0  0
 10 21  1  0  0  0  0
 20 21  2  0  0  0  0
 10 22  2  0  0  0  0
 19 22  1  0  0  0  0
 19 23  2  0  0  0  0
 21 24  1  0  0  0  0
  7 24  1  0  0  0  0
 20 25  1  0  0  0  0
 25 26  2  0  0  0  0
 26 27  1  0  0  0  0
 24 27  2  0  0  0  0
 17 28  2  0  0  0  0
 23 28  1  0  0  0  0
 14 29  1  0  0  0  0
 17 29  1  0  0  0  0
  6 30  1  0  0  0  0
 16 30  1  0  0  0  0
 18 30  1  0  0  0  0
  5 31  1  0  0  0  0
 25 31  1  0  0  0  0
 13 32  2  0  0  0  0
 17 32  1  0  0  0  0
  8 33  1  0  0  0  0
 27 33  1  0  0  0  0
M  END
> <ID>
SCHEMBL21153615

> <InChIKey>
HNXSUFULYVWEEJ-UHFFFAOYSA-N

> <MW>
491.41

> <Series_Name>
Series_15

$$$$
SCHEMBL21153630
  Mrv1719007191908512D 0   0.00000     0.00000     0

 36 39  0  0  0  0              1 V2000 
   10.7818   -0.9958    0.0000 C   0  0  0  0  0  0  0  0  0  0  0  0
    0.0000   -1.5703    0.0000 C   0  0  0  0  0  0  0  0  0  0  0  0
    9.4125   -1.0246    0.0000 C   0  0  0  0  0  0  0  0  0  0  0  0
    7.6985   -3.4854    0.0000 C   0  0  0  0  0  0  0  0  0  0  0  0
    3.4662   -3.3896    0.0000 C   0  0  0  0  0  0  0  0  0  0  0  0
    2.2406   -4.1174    0.0000 C   0  0  0  0  0  0  0  0  0  0  0  0
    9.9966   -4.7110    0.0000 C   0  0  0  0  0  0  0  0  0  0  0  0
    7.8709   -1.8065    0.0000 C   0  0  0  0  0  0  0  0  0  0  0  0
    7.8709   -1.0150    0.0000 C   0  0  0  0  0  0  0  0  0  0  0  0
    7.1431   -0.5936    0.0000 C   0  0  0  0  0  0  0  0  0  0  0  0
    6.4410   -0.9895    0.0000 C   0  0  0  0  0  0  0  0  0  0  0  0
    6.4538   -1.8065    0.0000 C   0  0  0  0  0  0  0  0  0  0  0  0
    3.5428   -1.0469    0.0000 C   0  0  2  0  0  0  0  0  0  0  0  0
    2.8343   -0.6703    0.0000 C   0  0  0  0  0  0  0  0  0  0  0  0
    4.9983   -1.0086    0.0000 C   0  0  0  0  0  0  0  0  0  0  0  0
    3.3896   -1.8576    0.0000 C   0  0  0  0  0  0  0  0  0  0  0  0
    2.5470   -1.9725    0.0000 C   0  0  1  0  0  0  0  0  0  0  0  0
    2.2215   -2.6428    0.0000 C   0  0  0  0  0  0  0  0  0  0  0  0
    0.8810   -1.7044    0.0000 C   0  0  0  0  0  0  0  0  0  0  0  0
    9.3264   -1.7874    0.0000 C   0  0  0  0  0  0  0  0  0  0  0  0
   10.0413   -2.2151    0.0000 C   0  0  0  0  0  0  0  0  0  0  0  0
    8.5986   -2.2151    0.0000 C   0  0  0  0  0  0  0  0  0  0  0  0
    7.1623   -2.2215    0.0000 C   0  0  0  0  0  0  0  0  0  0  0  0
    5.7452   -2.2215    0.0000 C   0  0  0  0  0  0  0  0  0  0  0  0
    8.5986   -3.0513    0.0000 C   0  0  0  0  0  0  0  0  0  0  0  0
   10.0541   -3.0449    0.0000 C   0  0  0  0  0  0  0  0  0  0  0  0
    9.3072   -3.4790    0.0000 C   0  0  0  0  0  0  0  0  0  0  0  0
    1.1299   -0.3543    0.0000 O   0  0  0  0  0  0  0  0  0  0  0  0
    1.4060   -1.1012    0.0000 C   0  0  0  0  0  0  0  0  0  0  0  0
    4.1814   -0.5621    0.0000 N   0  0  0  0  0  0  0  0  0  0  0  0
    2.6428   -3.4375    0.0000 N   0  0  0  0  0  0  0  0  0  0  0  0
    2.1927   -1.2735    0.0000 N   0  0  0  0  0  0  0  0  0  0  0  0
    4.9504   -1.8480    0.0000 N   0  0  0  0  0  0  0  0  0  0  0  0
   10.7626   -1.8480    0.0000 O   0  0  0  0  0  0  0  0  0  0  0  0
    5.7069   -0.6320    0.0000 N   0  0  0  0  0  0  0  0  0  0  0  0
    9.3264   -4.3472    0.0000 C   0  0  0  0  0  0  0  0  0  0  0  0
  8  9  1  0  0  0  0
  9 10  2  0  0  0  0
 10 11  1  0  0  0  0
 11 12  1  0  0  0  0
 13 14  1  0  0  0  0
 13 16  1  0  0  0  0
 17 16  1  0  0  0  0
 17 18  1  1  0  0  0
  2 19  2  0  0  0  0
  3 20  1  0  0  0  0
 20 21  2  0  0  0  0
 20 22  1  0  0  0  0
  8 22  1  0  0  0  0
  8 23  2  0  0  0  0
 12 23  1  0  0  0  0
 12 24  2  0  0  0  0
 22 25  2  0  0  0  0
  4 25  1  0  0  0  0
 21 26  1  0  0  0  0
 26 27  2  0  0  0  0
 25 27  1  0  0  0  0
 19 29  1  0  0  0  0
 28 29  2  0  0  0  0
 13 30  1  1  0  0  0
 15 30  1  0  0  0  0
  5 31  1  0  0  0  0
  6 31  1  0  0  0  0
 18 31  1  0  0  0  0
 14 32  1  0  0  0  0
 17 32  1  0  0  0  0
 29 32  1  0  0  0  0
 15 33  2  0  0  0  0
 24 33  1  0  0  0  0
  1 34  1  0  0  0  0
 21 34  1  0  0  0  0
 11 35  2  0  0  0  0
 15 35  1  0  0  0  0
  7 36  1  0  0  0  0
 27 36  1  0  0  0  0
M  END
> <ID>
SCHEMBL21153630

> <InChIKey>
OGFUJADIOJQHSV-ZEQRLZLVSA-N

> <MW>
487.648

> <Series_Name>
Series_15

$$$$
SCHEMBL21153644
  Mrv1719007191908562D 0   0.00000     0.00000     0

 32 35  0  0  0  0              1 V2000 
    1.0285   -0.5183    0.0000 O   0  0  0  0  0  0  0  0  0  0  0  0
    0.0319   -1.8179    0.0000 C   0  0  0  0  0  0  0  0  0  0  0  0
    9.2810   -1.0844    0.0000 Cl  0  0  0  0  0  0  0  0  0  0  0  0
   11.3222   -2.2804    0.0000 C   0  0  0  0  0  0  0  0  0  0  0  0
    7.5826   -3.5641    0.0000 C   0  0  0  0  0  0  0  0  0  0  0  0
    9.8392   -4.7999    0.0000 C   0  0  0  0  0  0  0  0  0  0  0  0
    7.7660   -1.8552    0.0000 C   0  0  0  0  0  0  0  0  0  0  0  0
    7.7660   -1.0525    0.0000 C   0  0  0  0  0  0  0  0  0  0  0  0
    7.0644   -0.6378    0.0000 C   0  0  0  0  0  0  0  0  0  0  0  0
    6.3256   -1.0419    0.0000 C   0  0  0  0  0  0  0  0  0  0  0  0
    6.3468   -1.8552    0.0000 C   0  0  0  0  0  0  0  0  0  0  0  0
    3.4711   -1.0419    0.0000 C   0  0  2  0  0  0  0  0  0  0  0  0
    2.7269   -0.7176    0.0000 C   0  0  0  0  0  0  0  0  0  0  0  0
    1.4192   -1.2173    0.0000 C   0  0  0  0  0  0  0  0  0  0  0  0
    4.9116   -1.0312    0.0000 C   0  0  0  0  0  0  0  0  0  0  0  0
    3.3488   -1.8817    0.0000 C   0  0  0  0  0  0  0  0  0  0  0  0
    2.5834   -2.0252    0.0000 C   0  0  0  0  0  0  0  0  0  0  0  0
    0.8771   -1.8977    0.0000 C   0  0  0  0  0  0  0  0  0  0  0  0
    8.4730   -2.2804    0.0000 C   0  0  0  0  0  0  0  0  0  0  0  0
    7.0644   -2.2804    0.0000 C   0  0  0  0  0  0  0  0  0  0  0  0
    5.6292   -2.2804    0.0000 C   0  0  0  0  0  0  0  0  0  0  0  0
    9.9029   -2.2910    0.0000 C   0  0  0  0  0  0  0  0  0  0  0  0
    8.4837   -3.0830    0.0000 C   0  0  0  0  0  0  0  0  0  0  0  0
    9.9189   -3.0777    0.0000 C   0  0  0  0  0  0  0  0  0  0  0  0
    9.1800   -3.5295    0.0000 C   0  0  0  0  0  0  0  0  0  0  0  0
    9.1534   -1.8658    0.0000 C   0  0  0  0  0  0  0  0  0  0  0  0
    4.8877   -1.9136    0.0000 N   0  0  0  0  0  0  0  0  0  0  0  0
    2.1608   -1.3555    0.0000 N   0  0  0  0  0  0  0  0  0  0  0  0
    9.2013   -4.3933    0.0000 O   0  0  0  0  0  0  0  0  0  0  0  0
   10.6126   -1.9057    0.0000 O   0  0  0  0  0  0  0  0  0  0  0  0
    4.2019   -0.4385    0.0000 N   0  0  0  0  0  0  0  0  0  0  0  0
    5.6212   -0.6538    0.0000 N   0  0  0  0  0  0  0  0  0  0  0  0
  7  8  1  0  0  0  0
  8  9  2  0  0  0  0
  9 10  1  0  0  0  0
 10 11  1  0  0  0  0
 12 13  1  0  0  0  0
  1 14  2  0  0  0  0
 12 16  1  0  0  0  0
 16 17  1  0  0  0  0
 14 18  1  0  0  0  0
  2 18  2  0  0  0  0
  7 19  1  0  0  0  0
  7 20  2  0  0  0  0
 11 20  1  0  0  0  0
 11 21  2  0  0  0  0
 19 23  2  0  0  0  0
  5 23  1  0  0  0  0
 22 24  1  0  0  0  0
 24 25  2  0  0  0  0
 23 25  1  0  0  0  0
  3 26  1  0  0  0  0
 22 26  2  0  0  0  0
 19 26  1  0  0  0  0
 15 27  2  0  0  0  0
 21 27  1  0  0  0  0
 13 28  1  0  0  0  0
 14 28  1  0  0  0  0
 17 28  1  0  0  0  0
  6 29  1  0  0  0  0
 25 29  1  0  0  0  0
  4 30  1  0  0  0  0
 22 30  1  0  0  0  0
 12 31  1  1  0  0  0
 15 31  1  0  0  0  0
 10 32  2  0  0  0  0
 15 32  1  0  0  0  0
M  END
> <ID>
SCHEMBL21153644

> <InChIKey>
HKISBECQTGZLKF-KRWDZBQOSA-N

> <MW>
452.94

> <Series_Name>
Series_15

$$$$
SCHEMBL21153645
  Mrv1719007191908562D 0   0.00000     0.00000     0

 35 38  0  0  0  0              1 V2000 
    2.3084   -1.0720    0.0000 C   0  0  0  0  0  0  0  0  0  0  0  0
   11.3152   -1.7998    0.0000 C   0  0  0  0  0  0  0  0  0  0  0  0
    0.0157   -2.2693    0.0000 C   0  0  0  0  0  0  0  0  0  0  0  0
    8.9520   -4.2256    0.0000 C   0  0  0  0  0  0  0  0  0  0  0  0
    3.6700   -3.5917    0.0000 C   0  0  0  0  0  0  0  0  0  0  0  0
    1.4555   -4.7890    0.0000 C   0  0  0  0  0  0  0  0  0  0  0  0
    5.0238   -1.0277    0.0000 C   0  0  0  0  0  0  0  0  0  0  0  0
    4.3351   -0.6104    0.0000 C   0  0  0  0  0  0  0  0  0  0  0  0
    3.5839   -1.0330    0.0000 C   0  0  0  0  0  0  0  0  0  0  0  0
    3.5839   -1.8676    0.0000 C   0  0  0  0  0  0  0  0  0  0  0  0
    9.1815   -1.2989    0.0000 C   0  0  0  0  0  0  0  0  0  0  0  0
    8.6390   -0.6886    0.0000 C   0  0  0  0  0  0  0  0  0  0  0  0
    7.8878   -1.0277    0.0000 C   0  0  0  0  0  0  0  0  0  0  0  0
    6.4479   -1.0277    0.0000 C   0  0  0  0  0  0  0  0  0  0  0  0
    5.0238   -1.8676    0.0000 C   0  0  0  0  0  0  0  0  0  0  0  0
    7.9660   -1.8311    0.0000 C   0  0  0  0  0  0  0  0  0  0  0  0
   10.0005   -1.2521    0.0000 C   0  0  0  0  0  0  0  0  0  0  0  0
    2.1597   -1.8676    0.0000 C   0  0  0  0  0  0  0  0  0  0  0  0
    1.4450   -2.2797    0.0000 C   0  0  0  0  0  0  0  0  0  0  0  0
    1.4555   -3.1144    0.0000 C   0  0  0  0  0  0  0  0  0  0  0  0
    2.1597   -3.5474    0.0000 C   0  0  0  0  0  0  0  0  0  0  0  0
    2.8692   -2.2797    0.0000 C   0  0  0  0  0  0  0  0  0  0  0  0
    2.8692   -3.1039    0.0000 C   0  0  0  0  0  0  0  0  0  0  0  0
    4.3351   -2.2693    0.0000 C   0  0  0  0  0  0  0  0  0  0  0  0
    5.7123   -2.2693    0.0000 C   0  0  0  0  0  0  0  0  0  0  0  0
    8.6390   -3.4587    0.0000 C   0  0  0  0  0  0  0  0  0  0  0  0
    9.0876   -2.7883    0.0000 C   0  0  0  0  0  0  0  0  0  0  0  0
    9.9379   -2.9188    0.0000 O   0  0  0  0  0  0  0  0  0  0  0  0
    5.7358   -0.6338    0.0000 N   0  0  0  0  0  0  0  0  0  0  0  0
    7.1600   -0.6338    0.0000 N   0  0  0  0  0  0  0  0  0  0  0  0
    8.7720   -2.0580    0.0000 N   0  0  0  0  0  0  0  0  0  0  0  0
    2.1675   -4.4134    0.0000 O   0  0  0  0  0  0  0  0  0  0  0  0
    0.7434   -1.8937    0.0000 O   0  0  0  0  0  0  0  0  0  0  0  0
   10.4935   -1.9250    0.0000 O   0  0  0  0  0  0  0  0  0  0  0  0
    6.4479   -1.8937    0.0000 N   0  0  0  0  0  0  0  0  0  0  0  0
  7  8  1  0  0  0  0
  8  9  2  0  0  0  0
  9 10  1  0  0  0  0
 11 12  1  0  0  0  0
 12 13  1  0  0  0  0
  7 15  2  0  0  0  0
 13 16  1  0  0  0  0
 11 17  1  0  0  0  0
  1 18  1  0  0  0  0
 18 19  1  0  0  0  0
 19 20  2  0  0  0  0
 20 21  1  0  0  0  0
 18 22  2  0  0  0  0
 10 22  1  0  0  0  0
 22 23  1  0  0  0  0
  5 23  1  0  0  0  0
 21 23  2  0  0  0  0
 15 24  1  0  0  0  0
 10 24  2  0  0  0  0
 15 25  1  0  0  0  0
  4 26  2  0  0  0  0
 26 27  1  0  0  0  0
 27 28  2  0  0  0  0
  7 29  1  0  0  0  0
 14 29  2  0  0  0  0
 13 30  1  0  0  0  0
 14 30  1  0  0  0  0
 11 31  1  0  0  0  0
 16 31  1  0  0  0  0
 27 31  1  0  0  0  0
  6 32  1  0  0  0  0
 21 32  1  0  0  0  0
  3 33  1  0  0  0  0
 19 33  1  0  0  0  0
  2 34  1  0  0  0  0
 17 34  1  0  0  0  0
 14 35  1  0  0  0  0
 25 35  2  0  0  0  0
M  END
> <ID>
SCHEMBL21153645

> <InChIKey>
GAQNGGSCHQNUFP-UHFFFAOYSA-N

> <MW>
476.577

> <Series_Name>
Series_15

$$$$
SCHEMBL21153652
  Mrv1719007191908572D 0   0.00000     0.00000     0

 33 36  0  0  0  0              1 V2000 
   23.6532   -0.5202    0.0000 O   0  0  0  0  0  0  0  0  0  0  0  0
   15.6689   -1.1113    0.0000 Cl  0  0  0  0  0  0  0  0  0  0  0  0
   24.6226   -1.8443    0.0000 C   0  0  0  0  0  0  0  0  0  0  0  0
   13.4147   -2.3172    0.0000 C   0  0  0  0  0  0  0  0  0  0  0  0
   23.4561   -2.6955    0.0000 C   0  0  0  0  0  0  0  0  0  0  0  0
   17.0325   -3.6019    0.0000 C   0  0  0  0  0  0  0  0  0  0  0  0
   14.8177   -4.8236    0.0000 C   0  0  0  0  0  0  0  0  0  0  0  0
   17.6551   -0.6621    0.0000 C   0  0  0  0  0  0  0  0  0  0  0  0
   16.9457   -1.0720    0.0000 C   0  0  0  0  0  0  0  0  0  0  0  0
   16.9457   -1.8969    0.0000 C   0  0  0  0  0  0  0  0  0  0  0  0
   18.3539   -1.0509    0.0000 C   0  0  0  0  0  0  0  0  0  0  0  0
   22.5050   -1.3399    0.0000 C   0  0  0  0  0  0  0  0  0  0  0  0
   21.9743   -0.7409    0.0000 C   0  0  0  0  0  0  0  0  0  0  0  0
   21.2019   -1.0667    0.0000 C   0  0  0  0  0  0  0  0  0  0  0  0
   19.7779   -1.0614    0.0000 C   0  0  0  0  0  0  0  0  0  0  0  0
   23.3510   -1.3084    0.0000 C   0  0  0  0  0  0  0  0  0  0  0  0
   18.3645   -1.8969    0.0000 C   0  0  0  0  0  0  0  0  0  0  0  0
   21.2807   -1.8759    0.0000 C   0  0  0  0  0  0  0  0  0  0  0  0
   15.5428   -1.8811    0.0000 C   0  0  0  0  0  0  0  0  0  0  0  0
   16.2364   -2.3277    0.0000 C   0  0  0  0  0  0  0  0  0  0  0  0
   14.8177   -2.3277    0.0000 C   0  0  0  0  0  0  0  0  0  0  0  0
   17.6709   -2.3172    0.0000 C   0  0  0  0  0  0  0  0  0  0  0  0
   19.0739   -2.3172    0.0000 C   0  0  0  0  0  0  0  0  0  0  0  0
   14.8177   -3.1527    0.0000 C   0  0  0  0  0  0  0  0  0  0  0  0
   15.5323   -3.5888    0.0000 C   0  0  0  0  0  0  0  0  0  0  0  0
   16.2364   -3.1579    0.0000 C   0  0  0  0  0  0  0  0  0  0  0  0
   15.5349   -4.4532    0.0000 O   0  0  0  0  0  0  0  0  0  0  0  0
   22.2975   -2.1044    0.0000 N   0  0  0  0  0  0  0  0  0  0  0  0
   19.0818   -0.6778    0.0000 N   0  0  0  0  0  0  0  0  0  0  0  0
   20.4926   -0.6778    0.0000 N   0  0  0  0  0  0  0  0  0  0  0  0
   23.7950   -1.9705    0.0000 N   0  0  0  0  0  0  0  0  0  0  0  0
   19.7911   -1.9389    0.0000 N   0  0  0  0  0  0  0  0  0  0  0  0
   14.1162   -1.9389    0.0000 O   0  0  0  0  0  0  0  0  0  0  0  0
  8  9  2  0  0  0  0
  9 10  1  0  0  0  0
  8 11  1  0  0  0  0
 12 13  1  0  0  0  0
 13 14  1  0  0  0  0
  1 16  2  0  0  0  0
 12 16  1  0  0  0  0
 11 17  2  0  0  0  0
 14 18  1  0  0  0  0
  2 19  1  0  0  0  0
 19 20  2  0  0  0  0
 10 20  1  0  0  0  0
 19 21  1  0  0  0  0
 17 22  1  0  0  0  0
 10 22  2  0  0  0  0
 17 23  1  0  0  0  0
 21 24  2  0  0  0  0
 24 25  1  0  0  0  0
 20 26  1  0  0  0  0
 25 26  2  0  0  0  0
  6 26  1  0  0  0  0
  7 27  1  0  0  0  0
 25 27  1  0  0  0  0
 12 28  1  0  0  0  0
 18 28  1  0  0  0  0
 11 29  1  0  0  0  0
 15 29  2  0  0  0  0
 14 30  1  0  0  0  0
 15 30  1  0  0  0  0
  3 31  1  0  0  0  0
  5 31  1  0  0  0  0
 16 31  1  0  0  0  0
 15 32  1  0  0  0  0
 23 32  2  0  0  0  0
  4 33  1  0  0  0  0
 21 33  1  0  0  0  0
M  END
> <ID>
SCHEMBL21153652

> <InChIKey>
BQZZHFXCNYXMSE-UHFFFAOYSA-N

> <MW>
469.97

> <Series_Name>
Series_15

$$$$
SCHEMBL21153653
  Mrv1719007191908572D 0   0.00000     0.00000     0

 40 43  0  0  0  0              1 V2000 
    0.4993   -1.0651    0.0000 C   0  0  0  0  0  0  0  0  0  0  0  0
   10.1680   -1.1066    0.0000 C   0  0  0  0  0  0  0  0  0  0  0  0
    0.0000   -1.7474    0.0000 C   0  0  0  0  0  0  0  0  0  0  0  0
    0.3495   -2.5129    0.0000 C   0  0  0  0  0  0  0  0  0  0  0  0
   12.1982   -2.2965    0.0000 C   0  0  0  0  0  0  0  0  0  0  0  0
    8.4373   -3.6112    0.0000 C   0  0  0  0  0  0  0  0  0  0  0  0
    3.6778   -4.8926    0.0000 C   0  0  0  0  0  0  0  0  0  0  0  0
   10.7338   -4.7928    0.0000 C   0  0  0  0  0  0  0  0  0  0  0  0
    8.5871   -1.8860    0.0000 C   0  0  0  0  0  0  0  0  0  0  0  0
    8.5537   -1.0151    0.0000 C   0  0  0  0  0  0  0  0  0  0  0  0
    7.8548   -0.6490    0.0000 C   0  0  0  0  0  0  0  0  0  0  0  0
    7.1559   -1.0429    0.0000 C   0  0  0  0  0  0  0  0  0  0  0  0
    4.2713   -1.0540    0.0000 C   0  0  0  0  0  0  0  0  0  0  0  0
    3.5114   -0.7322    0.0000 C   0  0  0  0  0  0  0  0  0  0  0  0
    5.7247   -1.0429    0.0000 C   0  0  0  0  0  0  0  0  0  0  0  0
    4.1937   -1.8805    0.0000 C   0  0  0  0  0  0  0  0  0  0  0  0
    3.3893   -2.0469    0.0000 C   0  0  0  0  0  0  0  0  0  0  0  0
    0.8154   -1.8223    0.0000 C   0  0  0  0  0  0  0  0  0  0  0  0
    7.1559   -1.8860    0.0000 C   0  0  0  0  0  0  0  0  0  0  0  0
   10.0349   -1.8860    0.0000 C   0  0  0  0  0  0  0  0  0  0  0  0
    6.4569   -2.2965    0.0000 C   0  0  0  0  0  0  0  0  0  0  0  0
    7.8715   -2.2965    0.0000 C   0  0  0  0  0  0  0  0  0  0  0  0
    9.3082   -2.2910    0.0000 C   0  0  0  0  0  0  0  0  0  0  0  0
    9.3193   -3.1175    0.0000 C   0  0  0  0  0  0  0  0  0  0  0  0
   10.7505   -2.2910    0.0000 C   0  0  0  0  0  0  0  0  0  0  0  0
    3.0953   -2.7292    0.0000 C   0  0  0  0  0  0  0  0  0  0  0  0
   10.7505   -3.1286    0.0000 C   0  0  0  0  0  0  0  0  0  0  0  0
   10.0238   -3.5391    0.0000 C   0  0  0  0  0  0  0  0  0  0  0  0
    3.2201   -4.2464    0.0000 C   0  0  0  0  0  0  0  0  0  0  0  0
    2.3881   -4.3768    0.0000 O   0  0  0  0  0  0  0  0  0  0  0  0
    1.8223   -0.5159    0.0000 O   0  0  0  0  0  0  0  0  0  0  0  0
    2.1468   -1.2564    0.0000 C   0  0  0  0  0  0  0  0  0  0  0  0
    3.7527   -3.5197    0.0000 N   0  0  0  0  0  0  0  0  0  0  0  0
    5.0091   -0.6740    0.0000 N   0  0  0  0  0  0  0  0  0  0  0  0
    6.4403   -0.6740    0.0000 N   0  0  0  0  0  0  0  0  0  0  0  0
    5.7247   -1.9221    0.0000 N   0  0  0  0  0  0  0  0  0  0  0  0
    2.9788   -1.3646    0.0000 N   0  0  0  0  0  0  0  0  0  0  0  0
    1.6725   -1.9471    0.0000 O   0  0  0  0  0  0  0  0  0  0  0  0
   11.4744   -1.9138    0.0000 O   0  0  0  0  0  0  0  0  0  0  0  0
   10.0349   -4.4183    0.0000 O   0  0  0  0  0  0  0  0  0  0  0  0
  9 10  1  0  0  0  0
 10 11  2  0  0  0  0
 11 12  1  0  0  0  0
 13 14  1  0  0  0  0
 13 16  1  0  0  0  0
 16 17  1  0  0  0  0
  1 18  1  0  0  0  0
  3 18  1  0  0  0  0
  4 18  1  0  0  0  0
 12 19  1  0  0  0  0
  2 20  1  0  0  0  0
 19 21  2  0  0  0  0
  9 22  2  0  0  0  0
 19 22  1  0  0  0  0
  9 23  1  0  0  0  0
 20 23  1  0  0  0  0
 23 24  2  0  0  0  0
  6 24  1  0  0  0  0
 20 25  2  0  0  0  0
 17 26  1  0  0  0  0
 25 27  1  0  0  0  0
 27 28  2  0  0  0  0
 24 28  1  0  0  0  0
  7 29  1  0  0  0  0
 29 30  2  0  0  0  0
 31 32  2  0  0  0  0
 26 33  1  0  0  0  0
 29 33  1  0  0  0  0
 13 34  1  0  0  0  0
 15 34  1  0  0  0  0
 12 35  2  0  0  0  0
 15 35  1  0  0  0  0
 15 36  2  0  0  0  0
 21 36  1  0  0  0  0
 14 37  1  0  0  0  0
 17 37  1  0  0  0  0
 32 37  1  0  0  0  0
 18 38  1  0  0  0  0
 32 38  1  0  0  0  0
  5 39  1  0  0  0  0
 25 39  1  0  0  0  0
  8 40  1  0  0  0  0
 28 40  1  0  0  0  0
M  END
> <ID>
SCHEMBL21153653

> <InChIKey>
XKYNJJIJIJSYNB-UHFFFAOYSA-N

> <MW>
549.672

> <Series_Name>
Series_15

$$$$
SCHEMBL21153654
  Mrv1719007191908572D 0   0.00000     0.00000     0

 42 45  0  0  0  0              1 V2000 
   15.8668   -0.5207    0.0000 O   0  0  0  0  0  0  0  0  0  0  0  0
   14.5487   -1.0903    0.0000 C   0  0  0  0  0  0  0  0  0  0  0  0
   24.1258   -1.0822    0.0000 Cl  0  0  0  0  0  0  0  0  0  0  0  0
   14.0604   -1.7576    0.0000 C   0  0  0  0  0  0  0  0  0  0  0  0
   26.1844   -2.2946    0.0000 C   0  0  0  0  0  0  0  0  0  0  0  0
   12.4656   -2.4573    0.0000 C   0  0  0  0  0  0  0  0  0  0  0  0
   22.4252   -3.5884    0.0000 Cl  0  0  0  0  0  0  0  0  0  0  0  0
   24.7360   -4.7845    0.0000 C   0  0  0  0  0  0  0  0  0  0  0  0
   16.9083   -4.9960    0.0000 C   0  0  0  0  0  0  0  0  0  0  0  0
   22.6205   -1.8769    0.0000 C   0  0  0  0  0  0  0  0  0  0  0  0
   22.6041   -1.0578    0.0000 C   0  0  0  0  0  0  0  0  0  0  0  0
   21.8556   -0.6510    0.0000 C   0  0  0  0  0  0  0  0  0  0  0  0
   21.1667   -1.0633    0.0000 C   0  0  0  0  0  0  0  0  0  0  0  0
   21.1721   -1.8932    0.0000 C   0  0  0  0  0  0  0  0  0  0  0  0
   18.3079   -1.0686    0.0000 C   0  0  0  0  0  0  0  0  0  0  0  0
   17.5430   -0.7323    0.0000 C   0  0  0  0  0  0  0  0  0  0  0  0
   16.2575   -1.2422    0.0000 C   0  0  0  0  0  0  0  0  0  0  0  0
   19.7562   -1.0686    0.0000 C   0  0  0  0  0  0  0  0  0  0  0  0
   14.8578   -1.8389    0.0000 C   0  0  0  0  0  0  0  0  0  0  0  0
   18.2265   -1.8715    0.0000 C   0  0  0  0  0  0  0  0  0  0  0  0
   17.4237   -2.0614    0.0000 C   0  0  0  0  0  0  0  0  0  0  0  0
   24.0363   -1.8932    0.0000 C   0  0  0  0  0  0  0  0  0  0  0  0
   23.3203   -2.3055    0.0000 C   0  0  0  0  0  0  0  0  0  0  0  0
   21.9044   -2.2946    0.0000 C   0  0  0  0  0  0  0  0  0  0  0  0
   20.4886   -2.2946    0.0000 C   0  0  0  0  0  0  0  0  0  0  0  0
   24.7523   -2.3055    0.0000 C   0  0  0  0  0  0  0  0  0  0  0  0
   17.1363   -2.7340    0.0000 C   0  0  0  0  0  0  0  0  0  0  0  0
   23.3203   -3.1300    0.0000 C   0  0  0  0  0  0  0  0  0  0  0  0
   24.7523   -3.1245    0.0000 C   0  0  0  0  0  0  0  0  0  0  0  0
   24.0363   -3.5585    0.0000 C   0  0  0  0  0  0  0  0  0  0  0  0
   17.9987   -4.6217    0.0000 O   0  0  0  0  0  0  0  0  0  0  0  0
   16.5015   -3.9382    0.0000 O   0  0  0  0  0  0  0  0  0  0  0  0
   14.2557   -2.4817    0.0000 C   0  0  0  0  0  0  0  0  0  0  0  0
   19.7562   -1.9284    0.0000 N   0  0  0  0  0  0  0  0  0  0  0  0
   17.0142   -1.3670    0.0000 N   0  0  0  0  0  0  0  0  0  0  0  0
   20.4642   -0.6754    0.0000 N   0  0  0  0  0  0  0  0  0  0  0  0
   17.7790   -3.5233    0.0000 N   0  0  0  0  0  0  0  0  0  0  0  0
   15.7204   -1.9610    0.0000 O   0  0  0  0  0  0  0  0  0  0  0  0
   25.4683   -1.9284    0.0000 O   0  0  0  0  0  0  0  0  0  0  0  0
   19.0402   -0.6754    0.0000 N   0  0  0  0  0  0  0  0  0  0  0  0
   17.2501   -4.2800    0.0000 S   0  0  0  0  0  0  0  0  0  0  0  0
   24.0363   -4.4102    0.0000 O   0  0  0  0  0  0  0  0  0  0  0  0
 10 11  1  0  0  0  0
 11 12  2  0  0  0  0
 12 13  1  0  0  0  0
 13 14  1  0  0  0  0
 15 16  1  0  0  0  0
  1 17  2  0  0  0  0
  2 19  1  0  0  0  0
  4 19  1  0  0  0  0
 15 20  1  0  0  0  0
 20 21  1  0  0  0  0
  3 22  1  0  0  0  0
 10 23  1  0  0  0  0
 22 23  1  0  0  0  0
 10 24  2  0  0  0  0
 14 24  1  0  0  0  0
 14 25  2  0  0  0  0
 22 26  2  0  0  0  0
 21 27  1  0  0  0  0
 23 28  2  0  0  0  0
  7 28  1  0  0  0  0
 26 29  1  0  0  0  0
 29 30  2  0  0  0  0
 28 30  1  0  0  0  0
 19 33  1  0  0  0  0
  6 33  1  0  0  0  0
 18 34  2  0  0  0  0
 25 34  1  0  0  0  0
 16 35  1  0  0  0  0
 17 35  1  0  0  0  0
 21 35  1  0  0  0  0
 13 36  2  0  0  0  0
 18 36  1  0  0  0  0
  9 37  1  0  0  0  0
 27 37  1  0  0  0  0
 17 38  1  0  0  0  0
 19 38  1  0  0  0  0
  5 39  1  0  0  0  0
 26 39  1  0  0  0  0
 15 40  1  0  0  0  0
 18 40  1  0  0  0  0
 31 41  2  0  0  0  0
 32 41  1  0  0  0  0
 37 41  1  0  0  0  0
  8 42  1  0  0  0  0
 30 42  1  0  0  0  0
M  END
> <ID>
SCHEMBL21153654

> <InChIKey>
SROGBKDEDZYIOL-UHFFFAOYSA-N

> <MW>
640.58

> <Series_Name>
Series_15

$$$$
SCHEMBL21153909
  Mrv1719007191910282D 0   0.00000     0.00000     0

 35 39  0  0  0  0              1 V2000 
   23.9626   -1.0125    0.0000 C   0  0  0  0  0  0  0  0  0  0  0  0
   22.6849   -1.0527    0.0000 Cl  0  0  0  0  0  0  0  0  0  0  0  0
   14.7858   -2.8768    0.0000 O   0  0  0  0  0  0  0  0  0  0  0  0
   20.9412   -3.5116    0.0000 C   0  0  0  0  0  0  0  0  0  0  0  0
   23.2555   -4.7250    0.0000 C   0  0  0  0  0  0  0  0  0  0  0  0
   21.1180   -1.8375    0.0000 C   0  0  0  0  0  0  0  0  0  0  0  0
   21.1180   -1.0125    0.0000 C   0  0  0  0  0  0  0  0  0  0  0  0
   20.3787   -0.5947    0.0000 C   0  0  0  0  0  0  0  0  0  0  0  0
   19.6876   -1.0072    0.0000 C   0  0  0  0  0  0  0  0  0  0  0  0
   16.8268   -1.0072    0.0000 C   0  0  0  0  0  0  0  0  0  0  0  0
   16.0554   -0.6750    0.0000 C   0  0  0  0  0  0  0  0  0  0  0  0
   18.2465   -1.0072    0.0000 C   0  0  0  0  0  0  0  0  0  0  0  0
   16.7465   -1.8000    0.0000 C   0  0  0  0  0  0  0  0  0  0  0  0
   15.9376   -2.0036    0.0000 C   0  0  0  0  0  0  0  0  0  0  0  0
   19.6876   -1.8375    0.0000 C   0  0  0  0  0  0  0  0  0  0  0  0
   22.5483   -1.8375    0.0000 C   0  0  0  0  0  0  0  0  0  0  0  0
   18.9643   -2.2500    0.0000 C   0  0  0  0  0  0  0  0  0  0  0  0
   20.4268   -2.2339    0.0000 C   0  0  0  0  0  0  0  0  0  0  0  0
   21.8251   -2.2447    0.0000 C   0  0  0  0  0  0  0  0  0  0  0  0
   23.2555   -2.2447    0.0000 C   0  0  0  0  0  0  0  0  0  0  0  0
   15.6376   -2.8179    0.0000 C   0  0  0  0  0  0  0  0  0  0  0  0
   21.8251   -3.0750    0.0000 C   0  0  0  0  0  0  0  0  0  0  0  0
   23.2555   -3.0697    0.0000 C   0  0  0  0  0  0  0  0  0  0  0  0
   22.5483   -3.4822    0.0000 C   0  0  0  0  0  0  0  0  0  0  0  0
   15.8465   -4.2268    0.0000 C   0  0  0  0  0  0  0  0  0  0  0  0
   16.4893   -4.6929    0.0000 C   0  0  0  0  0  0  0  0  0  0  0  0
   17.1322   -4.2429    0.0000 C   0  0  0  0  0  0  0  0  0  0  0  0
   16.9233   -3.4554    0.0000 C   0  0  0  0  0  0  0  0  0  0  0  0
   16.0795   -3.4554    0.0000 N   0  0  0  0  0  0  0  0  0  0  0  0
   15.3242   -1.3179    0.0000 N   0  0  0  0  0  0  0  0  0  0  0  0
   18.9643   -0.6268    0.0000 N   0  0  0  0  0  0  0  0  0  0  0  0
   17.5420   -0.6268    0.0000 N   0  0  0  0  0  0  0  0  0  0  0  0
   22.5483   -4.3473    0.0000 O   0  0  0  0  0  0  0  0  0  0  0  0
   18.2492   -1.8723    0.0000 N   0  0  0  0  0  0  0  0  0  0  0  0
   23.9787   -1.8643    0.0000 O   0  0  0  0  0  0  0  0  0  0  0  0
  6  7  1  0  0  0  0
  7  8  2  0  0  0  0
  8  9  1  0  0  0  0
 10 11  1  0  0  0  0
 10 13  1  0  0  0  0
 13 14  1  0  0  0  0
  9 15  1  0  0  0  0
  2 16  1  0  0  0  0
 15 17  2  0  0  0  0
  6 18  2  0  0  0  0
 15 18  1  0  0  0  0
  6 19  1  0  0  0  0
 16 19  1  0  0  0  0
 16 20  2  0  0  0  0
 14 21  1  0  0  0  0
  3 21  2  0  0  0  0
 19 22  2  0  0  0  0
  4 22  1  0  0  0  0
 20 23  1  0  0  0  0
 23 24  2  0  0  0  0
 22 24  1  0  0  0  0
 25 26  1  0  0  0  0
 26 27  1  0  0  0  0
 27 28  1  0  0  0  0
 21 29  1  0  0  0  0
 25 29  1  0  0  0  0
 28 29  1  0  0  0  0
 11 30  1  0  0  0  0
 14 30  1  0  0  0  0
  9 31  2  0  0  0  0
 12 31  1  0  0  0  0
 10 32  1  0  0  0  0
 12 32  1  0  0  0  0
  5 33  1  0  0  0  0
 24 33  1  0  0  0  0
 12 34  2  0  0  0  0
 17 34  1  0  0  0  0
  1 35  1  0  0  0  0
 20 35  1  0  0  0  0
M  END
> <ID>
SCHEMBL21153909

> <InChIKey>
MFLXEIMSIRTHRS-UHFFFAOYSA-N

> <MW>
496.01

> <Series_Name>
Series_15

$$$$
SCHEMBL21153913
  Mrv1719007191910302D 0   0.00000     0.00000     0

 40 44  0  0  0  0              1 V2000 
    1.1094   -0.3472    0.0000 O   0  0  0  0  0  0  0  0  0  0  0  0
   10.8528   -0.9963    0.0000 C   0  0  0  0  0  0  0  0  0  0  0  0
    0.0151   -1.5698    0.0000 C   0  0  0  0  0  0  0  0  0  0  0  0
    9.4716   -1.0264    0.0000 C   0  0  0  0  0  0  0  0  0  0  0  0
    7.7358   -3.5321    0.0000 Cl  0  0  0  0  0  0  0  0  0  0  0  0
   10.0528   -4.7245    0.0000 C   0  0  0  0  0  0  0  0  0  0  0  0
    1.4491   -1.0767    0.0000 C   0  0  0  0  0  0  0  0  0  0  0  0
    7.9396   -1.8012    0.0000 C   0  0  0  0  0  0  0  0  0  0  0  0
    7.9396   -1.0113    0.0000 C   0  0  0  0  0  0  0  0  0  0  0  0
    7.1849   -0.5886    0.0000 C   0  0  0  0  0  0  0  0  0  0  0  0
    6.4654   -0.9912    0.0000 C   0  0  0  0  0  0  0  0  0  0  0  0
    6.4604   -1.8164    0.0000 C   0  0  0  0  0  0  0  0  0  0  0  0
    3.5421   -1.0566    0.0000 C   0  0  2  0  0  0  0  0  0  0  0  0
    2.8377   -0.6641    0.0000 C   0  0  0  0  0  0  0  0  0  0  0  0
    5.0113   -1.0063    0.0000 C   0  0  0  0  0  0  0  0  0  0  0  0
    3.4264   -1.8264    0.0000 C   0  0  0  0  0  0  0  0  0  0  0  0
    2.5862   -1.9572    0.0000 C   0  0  1  0  0  0  0  0  0  0  0  0
    0.8604   -1.7057    0.0000 C   0  0  0  0  0  0  0  0  0  0  0  0
    9.3634   -1.7861    0.0000 C   0  0  0  0  0  0  0  0  0  0  0  0
   10.1031   -2.2138    0.0000 C   0  0  0  0  0  0  0  0  0  0  0  0
    8.6540   -2.2138    0.0000 C   0  0  0  0  0  0  0  0  0  0  0  0
    8.6490   -3.0541    0.0000 C   0  0  0  0  0  0  0  0  0  0  0  0
    7.2302   -2.2189    0.0000 C   0  0  0  0  0  0  0  0  0  0  0  0
    5.7811   -2.2189    0.0000 C   0  0  0  0  0  0  0  0  0  0  0  0
   10.1131   -3.0490    0.0000 C   0  0  0  0  0  0  0  0  0  0  0  0
    9.3534   -3.4767    0.0000 C   0  0  0  0  0  0  0  0  0  0  0  0
    3.9245   -4.0453    0.0000 C   0  0  0  0  0  0  0  0  0  0  0  0
    3.4717   -3.3660    0.0000 C   0  0  0  0  0  0  0  0  0  0  0  0
    2.2642   -4.1811    0.0000 C   0  0  0  0  0  0  0  0  0  0  0  0
    2.7019   -4.8151    0.0000 C   0  0  0  0  0  0  0  0  0  0  0  0
    2.2993   -2.5056    0.0000 C   0  0  0  0  0  0  0  0  0  0  0  0
    2.2189   -2.7396    0.0000 C   0  0  0  0  0  0  0  0  0  0  0  0
    4.2539   -0.5991    0.0000 N   0  0  0  0  0  0  0  0  0  0  0  0
    3.5547   -4.8075    0.0000 O   0  0  0  0  0  0  0  0  0  0  0  0
    9.3584   -4.3320    0.0000 O   0  0  0  0  0  0  0  0  0  0  0  0
   10.8603   -1.8415    0.0000 O   0  0  0  0  0  0  0  0  0  0  0  0
    4.9962   -1.8415    0.0000 N   0  0  0  0  0  0  0  0  0  0  0  0
    5.7434   -0.6264    0.0000 N   0  0  0  0  0  0  0  0  0  0  0  0
    2.1811   -1.2529    0.0000 N   0  0  0  0  0  0  0  0  0  0  0  0
    2.5811   -3.4339    0.0000 N   0  0  0  0  0  0  0  0  0  0  0  0
  1  7  2  0  0  0  0
  8  9  1  0  0  0  0
  9 10  2  0  0  0  0
 10 11  1  0  0  0  0
 11 12  1  0  0  0  0
 13 14  1  0  0  0  0
 13 16  1  0  0  0  0
 17 16  1  0  0  0  0
  7 18  1  0  0  0  0
  3 18  2  0  0  0  0
  4 19  1  0  0  0  0
 19 20  2  0  0  0  0
 19 21  1  0  0  0  0
  8 21  1  0  0  0  0
 21 22  2  0  0  0  0
  5 22  1  0  0  0  0
  8 23  2  0  0  0  0
 12 23  1  0  0  0  0
 12 24  2  0  0  0  0
 20 25  1  0  0  0  0
 25 26  2  0  0  0  0
 22 26  1  0  0  0  0
 27 28  1  0  0  0  0
 29 30  1  0  0  0  0
 17 31  1  1  0  0  0
 31 32  2  0  0  0  0
 13 33  1  1  0  0  0
 15 33  1  0  0  0  0
 27 34  1  0  0  0  0
 30 34  1  0  0  0  0
  6 35  1  0  0  0  0
 26 35  1  0  0  0  0
  2 36  1  0  0  0  0
 20 36  1  0  0  0  0
 15 37  2  0  0  0  0
 24 37  1  0  0  0  0
 11 38  2  0  0  0  0
 15 38  1  0  0  0  0
  7 39  1  0  0  0  0
 14 39  1  0  0  0  0
 17 39  1  0  0  0  0
 28 40  1  0  0  0  0
 29 40  1  0  0  0  0
 32 40  1  0  0  0  0
M  END
> <ID>
SCHEMBL21153913

> <InChIKey>
ZBSIAVDYAXJAPO-UGJRNGHWSA-N

> <MW>
564.08

> <Series_Name>
Series_15

$$$$
SCHEMBL21153920
  Mrv1719007191910332D 0   0.00000     0.00000     0

 37 40  0  0  0  0              1 V2000 
   11.9481   -1.8489    0.0000 C   0  0  0  0  0  0  0  0  0  0  0  0
   21.1073   -1.0876    0.0000 Cl  0  0  0  0  0  0  0  0  0  0  0  0
   23.1349   -2.2995    0.0000 C   0  0  0  0  0  0  0  0  0  0  0  0
   19.4214   -3.5969    0.0000 Cl  0  0  0  0  0  0  0  0  0  0  0  0
   13.4707   -4.3893    0.0000 O   0  0  0  0  0  0  0  0  0  0  0  0
   14.7447   -4.9408    0.0000 C   0  0  0  0  0  0  0  0  0  0  0  0
   21.7365   -4.8165    0.0000 C   0  0  0  0  0  0  0  0  0  0  0  0
   19.5975   -1.8852    0.0000 C   0  0  0  0  0  0  0  0  0  0  0  0
   19.6079   -1.0876    0.0000 C   0  0  0  0  0  0  0  0  0  0  0  0
   18.8932   -0.6370    0.0000 C   0  0  0  0  0  0  0  0  0  0  0  0
   18.1784   -1.0513    0.0000 C   0  0  0  0  0  0  0  0  0  0  0  0
   15.3300   -1.0720    0.0000 C   0  0  0  0  0  0  0  0  0  0  0  0
   14.5894   -0.7302    0.0000 C   0  0  0  0  0  0  0  0  0  0  0  0
   15.2576   -1.8800    0.0000 C   0  0  0  0  0  0  0  0  0  0  0  0
   14.4444   -2.0769    0.0000 C   0  0  0  0  0  0  0  0  0  0  0  0
   16.7646   -1.0513    0.0000 C   0  0  0  0  0  0  0  0  0  0  0  0
   18.1784   -1.8852    0.0000 C   0  0  0  0  0  0  0  0  0  0  0  0
   12.7405   -1.9266    0.0000 C   0  0  0  0  0  0  0  0  0  0  0  0
   21.0218   -1.8852    0.0000 C   0  0  0  0  0  0  0  0  0  0  0  0
   17.4948   -2.2995    0.0000 C   0  0  0  0  0  0  0  0  0  0  0  0
   20.3226   -2.3099    0.0000 C   0  0  0  0  0  0  0  0  0  0  0  0
   18.8932   -2.3150    0.0000 C   0  0  0  0  0  0  0  0  0  0  0  0
   21.7365   -2.3099    0.0000 C   0  0  0  0  0  0  0  0  0  0  0  0
   14.1543   -2.7812    0.0000 C   0  0  0  0  0  0  0  0  0  0  0  0
   20.3226   -3.1437    0.0000 C   0  0  0  0  0  0  0  0  0  0  0  0
   21.7365   -3.1385    0.0000 C   0  0  0  0  0  0  0  0  0  0  0  0
   21.0218   -3.5683    0.0000 C   0  0  0  0  0  0  0  0  0  0  0  0
   14.2942   -4.3400    0.0000 C   0  0  0  0  0  0  0  0  0  0  0  0
   12.8959   -0.5127    0.0000 O   0  0  0  0  0  0  0  0  0  0  0  0
   13.2364   -1.2740    0.0000 C   0  0  0  0  0  0  0  0  0  0  0  0
   14.8069   -3.5425    0.0000 N   0  0  0  0  0  0  0  0  0  0  0  0
   17.4715   -0.6759    0.0000 N   0  0  0  0  0  0  0  0  0  0  0  0
   16.0499   -0.6759    0.0000 N   0  0  0  0  0  0  0  0  0  0  0  0
   16.7646   -1.9344    0.0000 N   0  0  0  0  0  0  0  0  0  0  0  0
   21.0296   -4.4437    0.0000 O   0  0  0  0  0  0  0  0  0  0  0  0
   22.4512   -1.9266    0.0000 O   0  0  0  0  0  0  0  0  0  0  0  0
   14.0456   -1.3673    0.0000 N   0  0  0  0  0  0  0  0  0  0  0  0
  8  9  1  0  0  0  0
  9 10  2  0  0  0  0
 10 11  1  0  0  0  0
 12 13  1  0  0  0  0
 12 14  1  0  0  0  0
 14 15  1  0  0  0  0
 11 17  1  0  0  0  0
  1 18  2  0  0  0  0
  2 19  1  0  0  0  0
 17 20  2  0  0  0  0
  8 21  1  0  0  0  0
 19 21  1  0  0  0  0
  8 22  2  0  0  0  0
 17 22  1  0  0  0  0
 19 23  2  0  0  0  0
 15 24  1  0  0  0  0
 21 25  2  0  0  0  0
  4 25  1  0  0  0  0
 23 26  1  0  0  0  0
 26 27  2  0  0  0  0
 25 27  1  0  0  0  0
  5 28  2  0  0  0  0
  6 28  1  0  0  0  0
 18 30  1  0  0  0  0
 29 30  2  0  0  0  0
 24 31  1  0  0  0  0
 28 31  1  0  0  0  0
 11 32  2  0  0  0  0
 16 32  1  0  0  0  0
 12 33  1  0  0  0  0
 16 33  1  0  0  0  0
 16 34  2  0  0  0  0
 20 34  1  0  0  0  0
  7 35  1  0  0  0  0
 27 35  1  0  0  0  0
  3 36  1  0  0  0  0
 23 36  1  0  0  0  0
 13 37  1  0  0  0  0
 15 37  1  0  0  0  0
 30 37  1  0  0  0  0
M  END
> <ID>
SCHEMBL21153920

> <InChIKey>
RAWWQKPRSNXCRU-UHFFFAOYSA-N

> <MW>
544.43

> <Series_Name>
Series_15

$$$$
SCHEMBL21153923
  Mrv1719007191910342D 0   0.00000     0.00000     0

 34 37  0  0  0  0              1 V2000 
    9.7721   -0.0152    0.0000 C   0  0  0  0  0  0  0  0  0  0  0  0
    2.6638   -1.3395    0.0000 C   0  0  0  0  0  0  0  0  0  0  0  0
    7.4737   -1.2938    0.0000 Cl  0  0  0  0  0  0  0  0  0  0  0  0
    1.6515   -1.2710    0.0000 O   0  0  0  0  0  0  0  0  0  0  0  0
    1.3699   -1.9179    0.0000 C   0  0  0  0  0  0  0  0  0  0  0  0
   11.1877   -2.5268    0.0000 C   0  0  0  0  0  0  0  0  0  0  0  0
    9.1480   -3.8129    0.0000 Cl  0  0  0  0  0  0  0  0  0  0  0  0
    9.0567   -1.2532    0.0000 C   0  0  0  0  0  0  0  0  0  0  0  0
    8.3362   -1.6794    0.0000 C   0  0  0  0  0  0  0  0  0  0  0  0
    8.3413   -2.5318    0.0000 C   0  0  0  0  0  0  0  0  0  0  0  0
    9.7569   -1.6895    0.0000 C   0  0  0  0  0  0  0  0  0  0  0  0
    9.7569   -2.5318    0.0000 C   0  0  0  0  0  0  0  0  0  0  0  0
    2.1995   -2.0206    0.0000 C   0  0  0  0  0  0  0  0  0  0  0  0
    2.5217   -2.7855    0.0000 C   0  0  0  0  0  0  0  0  0  0  0  0
    6.2306   -2.9479    0.0000 C   0  0  0  0  0  0  0  0  0  0  0  0
    5.5558   -2.5420    0.0000 C   0  0  0  0  0  0  0  0  0  0  0  0
    7.6411   -2.9479    0.0000 C   0  0  0  0  0  0  0  0  0  0  0  0
    6.9714   -2.5420    0.0000 C   0  0  0  0  0  0  0  0  0  0  0  0
    6.2408   -3.7648    0.0000 C   0  0  0  0  0  0  0  0  0  0  0  0
    9.0567   -2.9479    0.0000 C   0  0  0  0  0  0  0  0  0  0  0  0
    3.3944   -3.7648    0.0000 C   0  0  0  0  0  0  0  0  0  0  0  0
    3.3182   -2.9530    0.0000 C   0  0  0  0  0  0  0  0  0  0  0  0
    7.6411   -3.7749    0.0000 C   0  0  0  0  0  0  0  0  0  0  0  0
    6.9409   -4.1859    0.0000 C   0  0  0  0  0  0  0  0  0  0  0  0
    4.8252   -3.7648    0.0000 C   0  0  0  0  0  0  0  0  0  0  0  0
    2.6485   -4.1097    0.0000 C   0  0  0  0  0  0  0  0  0  0  0  0
    1.3699   -3.6024    0.0000 C   0  0  0  0  0  0  0  0  0  0  0  0
    0.9742   -4.3761    0.0000 O   0  0  0  0  0  0  0  0  0  0  0  0
    2.1158   -3.5314    0.0000 N   0  0  0  0  0  0  0  0  0  0  0  0
    4.1134   -4.2041    0.0000 N   0  0  0  0  0  0  0  0  0  0  0  0
    5.5254   -4.2315    0.0000 N   0  0  0  0  0  0  0  0  0  0  0  0
   10.4799   -2.9758    0.0000 O   0  0  0  0  0  0  0  0  0  0  0  0
    4.8175   -2.9758    0.0000 N   0  0  0  0  0  0  0  0  0  0  0  0
    9.0643   -0.4566    0.0000 O   0  0  0  0  0  0  0  0  0  0  0  0
  8  9  2  0  0  0  0
  3  9  1  0  0  0  0
  9 10  1  0  0  0  0
  8 11  1  0  0  0  0
 11 12  2  0  0  0  0
  2 13  1  0  0  0  0
  4 13  1  0  0  0  0
  5 13  1  0  0  0  0
 13 14  1  0  0  0  0
 15 16  2  0  0  0  0
 10 17  1  0  0  0  0
 17 18  2  0  0  0  0
 15 18  1  0  0  0  0
 15 19  1  0  0  0  0
 10 20  2  0  0  0  0
 12 20  1  0  0  0  0
  7 20  1  0  0  0  0
 21 22  1  0  0  0  0
 14 22  1  0  0  0  0
 17 23  1  0  0  0  0
 23 24  2  0  0  0  0
 19 24  1  0  0  0  0
 21 26  1  0  0  0  0
 27 28  2  0  0  0  0
 14 29  1  0  0  0  0
 26 29  1  0  0  0  0
 27 29  1  0  0  0  0
 21 30  1  0  0  0  0
 25 30  1  0  0  0  0
 19 31  2  0  0  0  0
 25 31  1  0  0  0  0
  6 32  1  0  0  0  0
 12 32  1  0  0  0  0
 16 33  1  0  0  0  0
 25 33  2  0  0  0  0
  1 34  1  0  0  0  0
  8 34  1  0  0  0  0
M  END
> <ID>
SCHEMBL21153923

> <InChIKey>
AIEFSVDETZKWKD-UHFFFAOYSA-N

> <MW>
505.4

> <Series_Name>
Series_15

$$$$
SCHEMBL21153925
  Mrv1719007191910342D 0   0.00000     0.00000     0

 35 38  0  0  1  0              1 V2000 
    6.3257   -3.8623    0.0000 C   0  0  0  0  0  0  0  0  0  0  0  0
    7.0209   -4.2916    0.0000 C   0  0  0  0  0  0  0  0  0  0  0  0
    5.5893   -4.2947    0.0000 N   0  0  0  0  0  0  0  0  0  0  0  0
    5.5754   -2.6233    0.0000 C   0  0  0  0  0  0  0  0  0  0  0  0
    6.3277   -3.0362    0.0000 C   0  0  0  0  0  0  0  0  0  0  0  0
    4.8887   -3.0611    0.0000 N   0  0  0  0  0  0  0  0  0  0  0  0
    7.0108   -2.6291    0.0000 C   0  0  0  0  0  0  0  0  0  0  0  0
    7.7187   -3.0243    0.0000 C   0  0  0  0  0  0  0  0  0  0  0  0
    8.4277   -2.6143    0.0000 C   0  0  0  0  0  0  0  0  0  0  0  0
    8.4309   -1.7561    0.0000 C   0  0  0  0  0  0  0  0  0  0  0  0
    7.5956   -1.3637    0.0000 Cl  0  0  0  0  0  0  0  0  0  0  0  0
    9.1405   -1.3425    0.0000 C   0  0  0  0  0  0  0  0  0  0  0  0
    9.1224   -0.5330    0.0000 O   0  0  0  0  0  0  0  0  0  0  0  0
    9.8437   -2.6136    0.0000 C   0  0  0  0  0  0  0  0  0  0  0  0
   10.5388   -3.0459    0.0000 O   0  0  0  0  0  0  0  0  0  0  0  0
    9.1410   -3.0266    0.0000 C   0  0  0  0  0  0  0  0  0  0  0  0
    9.3188   -3.7812    0.0000 Cl  0  0  0  0  0  0  0  0  0  0  0  0
    7.7254   -3.8678    0.0000 C   0  0  0  0  0  0  0  0  0  0  0  0
    9.8363   -1.7633    0.0000 C   0  0  0  0  0  0  0  0  0  0  0  0
    0.0684   -3.0738    0.0000 C   0  0  0  0  0  0  0  0  0  0  0  0
    0.9115   -3.0041    0.0000 C   0  0  0  0  0  0  0  0  0  0  0  0
    1.4658   -3.6957    0.0000 C   0  0  0  0  0  0  0  0  0  0  0  0
    2.1778   -3.5942    0.0000 N   0  0  0  0  0  0  0  0  0  0  0  0
    2.7296   -4.1974    0.0000 C   0  0  0  0  0  0  0  0  0  0  0  0
    3.4874   -3.8534    0.0000 C   0  0  1  0  0  0  0  0  0  0  0  0
    3.4023   -3.0377    0.0000 C   0  0  0  0  0  0  0  0  0  0  0  0
    2.6000   -2.8710    0.0000 C   0  0  2  0  0  0  0  0  0  0  0  0
    2.2810   -2.0994    0.0000 C   0  0  0  0  0  0  0  0  0  0  0  0
    1.4392   -1.9975    0.0000 C   0  0  0  0  0  0  0  0  0  0  0  0
    1.7209   -1.3402    0.0000 O   0  0  0  0  0  0  0  0  0  0  0  0
    4.1805   -4.5307    0.0000 N   0  0  0  0  0  0  0  0  0  0  0  0
    4.9091   -3.8641    0.0000 C   0  0  0  0  0  0  0  0  0  0  0  0
   11.2927   -2.6044    0.0000 C   0  0  0  0  0  0  0  0  0  0  0  0
    9.8763   -0.1042    0.0000 C   0  0  0  0  0  0  0  0  0  0  0  0
    2.7566   -1.4163    0.0000 C   0  0  0  0  0  0  0  0  0  0  0  0
  1  2  1  0  0  0  0
  2 18  2  0  0  0  0
  3  1  2  0  0  0  0
  4  5  2  0  0  0  0
  4  6  1  0  0  0  0
  5  7  1  0  0  0  0
  5  1  1  0  0  0  0
  6 32  2  0  0  0  0
  7  8  2  0  0  0  0
  8  9  1  0  0  0  0
  9 16  2  0  0  0  0
 10  9  1  0  0  0  0
 10 12  2  0  0  0  0
 11 10  1  0  0  0  0
 12 13  1  0  0  0  0
 12 19  1  0  0  0  0
 13 34  1  0  0  0  0
 14 15  1  0  0  0  0
 15 33  1  0  0  0  0
 16 17  1  0  0  0  0
 16 14  1  0  0  0  0
 18  8  1  0  0  0  0
 19 14  2  0  0  0  0
 20 21  2  0  0  0  0
 21 22  1  0  0  0  0
 23 22  1  0  0  0  0
 25 24  1  0  0  0  0
 24 23  1  0  0  0  0
 25 26  1  0  0  0  0
 25 31  1  1  0  0  0
 27 23  1  0  0  0  0
 27 28  1  1  0  0  0
 27 26  1  0  0  0  0
 28 35  1  0  0  0  0
 29 28  1  0  0  0  0
 30 28  1  0  0  0  0
 32  3  1  0  0  0  0
 32 31  1  0  0  0  0
M  END
> <ID>
SCHEMBL21153925

> <InChIKey>
ROHFAJMUNFUACO-DYESRHJHSA-N

> <MW>
517.45

> <Series_Name>
Series_15

$$$$
SCHEMBL21153929
  Mrv1719007191910392D 0   0.00000     0.00000     0

 34 37  0  0  0  0              1 V2000 
    1.0618    4.5651    0.0000 O   0  0  0  0  0  0  0  0  0  0  0  0
   10.6027    3.9218    0.0000 C   0  0  0  0  0  0  0  0  0  0  0  0
    0.0000    3.3327    0.0000 C   0  0  0  0  0  0  0  0  0  0  0  0
    9.2696    3.8674    0.0000 C   0  0  0  0  0  0  0  0  0  0  0  0
    7.5413    1.3408    0.0000 C   0  0  0  0  0  0  0  0  0  0  0  0
    9.8277    0.1395    0.0000 C   0  0  0  0  0  0  0  0  0  0  0  0
    7.7247    3.0951    0.0000 C   0  0  0  0  0  0  0  0  0  0  0  0
    7.7350    3.8908    0.0000 C   0  0  0  0  0  0  0  0  0  0  0  0
    7.0064    4.3248    0.0000 C   0  0  0  0  0  0  0  0  0  0  0  0
    6.2986    3.9114    0.0000 C   0  0  0  0  0  0  0  0  0  0  0  0
    6.3141    3.0795    0.0000 C   0  0  0  0  0  0  0  0  0  0  0  0
    1.2866    3.7874    0.0000 C   0  0  0  0  0  0  0  0  0  0  0  0
    3.4567    3.8649    0.0000 C   0  0  2  0  0  0  0  0  0  0  0  0
    2.7592    4.2318    0.0000 C   0  0  0  0  0  0  0  0  0  0  0  0
    4.8829    3.8960    0.0000 C   0  0  0  0  0  0  0  0  0  0  0  0
    3.3017    3.0227    0.0000 C   0  0  0  0  0  0  0  0  0  0  0  0
    2.4905    2.9246    0.0000 C   0  0  2  0  0  0  0  0  0  0  0  0
    0.8215    3.1932    0.0000 C   0  0  0  0  0  0  0  0  0  0  0  0
    9.1612    3.0951    0.0000 C   0  0  0  0  0  0  0  0  0  0  0  0
    8.4325    2.6713    0.0000 C   0  0  0  0  0  0  0  0  0  0  0  0
    6.9910    2.6661    0.0000 C   0  0  0  0  0  0  0  0  0  0  0  0
    9.8638    2.6713    0.0000 C   0  0  0  0  0  0  0  0  0  0  0  0
    5.6424    2.6661    0.0000 C   0  0  0  0  0  0  0  0  0  0  0  0
    9.8741    1.8291    0.0000 C   0  0  0  0  0  0  0  0  0  0  0  0
    9.1456    1.4158    0.0000 C   0  0  0  0  0  0  0  0  0  0  0  0
    8.4325    1.8240    0.0000 C   0  0  0  0  0  0  0  0  0  0  0  0
    4.1249    4.3315    0.0000 N   0  0  0  0  0  0  0  0  0  0  0  0
    2.1237    3.6428    0.0000 N   0  0  0  0  0  0  0  0  0  0  0  0
    4.8673    3.0537    0.0000 N   0  0  0  0  0  0  0  0  0  0  0  0
    9.1223    0.5271    0.0000 O   0  0  0  0  0  0  0  0  0  0  0  0
   10.5949    3.0615    0.0000 O   0  0  0  0  0  0  0  0  0  0  0  0
    5.5649    4.2860    0.0000 N   0  0  0  0  0  0  0  0  0  0  0  0
    2.1890    2.3581    0.0000 C   0  0  0  0  0  0  0  0  0  0  0  0
    1.8875    1.7917    0.0000 N   0  0  0  0  0  0  0  0  0  0  0  0
  7  8  1  0  0  0  0
  8  9  2  0  0  0  0
  9 10  1  0  0  0  0
 10 11  1  0  0  0  0
  1 12  2  0  0  0  0
 13 14  1  0  0  0  0
 13 16  1  0  0  0  0
 17 16  1  0  0  0  0
 12 18  1  0  0  0  0
  3 18  2  0  0  0  0
  4 19  1  0  0  0  0
  7 20  1  0  0  0  0
 19 20  1  0  0  0  0
  7 21  2  0  0  0  0
 11 21  1  0  0  0  0
 19 22  2  0  0  0  0
 11 23  2  0  0  0  0
 22 24  1  0  0  0  0
 24 25  2  0  0  0  0
 20 26  2  0  0  0  0
 25 26  1  0  0  0  0
  5 26  1  0  0  0  0
 13 27  1  1  0  0  0
 15 27  1  0  0  0  0
 12 28  1  0  0  0  0
 14 28  1  0  0  0  0
 17 28  1  0  0  0  0
 15 29  2  0  0  0  0
 23 29  1  0  0  0  0
  6 30  1  0  0  0  0
 25 30  1  0  0  0  0
  2 31  1  0  0  0  0
 22 31  1  0  0  0  0
 10 32  2  0  0  0  0
 15 32  1  0  0  0  0
 17 33  1  1  0  0  0
 33 34  3  0  0  0  0
M  END
> <ID>
SCHEMBL21153929

> <InChIKey>
BMUPDZRPXWYXPR-PMACEKPBSA-N

> <MW>
457.534

> <Series_Name>
Series_15

$$$$
SCHEMBL21153931
  Mrv1719007191910402D 0   0.00000     0.00000     0

 42 46  0  0  0  0              1 V2000 
   13.2318   -0.5947    0.0000 O   0  0  0  0  0  0  0  0  0  0  0  0
   12.2611   -1.9240    0.0000 C   0  0  0  0  0  0  0  0  0  0  0  0
   21.4700   -1.1632    0.0000 C   0  0  0  0  0  0  0  0  0  0  0  0
   23.5076   -2.4137    0.0000 C   0  0  0  0  0  0  0  0  0  0  0  0
   14.6224   -4.3202    0.0000 C   0  0  0  0  0  0  0  0  0  0  0  0
   22.0909   -4.8974    0.0000 C   0  0  0  0  0  0  0  0  0  0  0  0
   19.9570   -1.9648    0.0000 C   0  0  0  0  0  0  0  0  0  0  0  0
   19.9570   -1.1369    0.0000 C   0  0  0  0  0  0  0  0  0  0  0  0
   19.2398   -0.7171    0.0000 C   0  0  0  0  0  0  0  0  0  0  0  0
   18.5344   -1.1311    0.0000 C   0  0  0  0  0  0  0  0  0  0  0  0
   15.6718   -1.1311    0.0000 C   0  0  2  0  0  0  0  0  0  0  0  0
   14.9197   -0.8045    0.0000 C   0  0  0  0  0  0  0  0  0  0  0  0
   17.1061   -1.1311    0.0000 C   0  0  0  0  0  0  0  0  0  0  0  0
   13.5145   -1.3585    0.0000 C   0  0  0  0  0  0  0  0  0  0  0  0
   15.6018   -1.9414    0.0000 C   0  0  0  0  0  0  0  0  0  0  0  0
   14.7913   -2.1339    0.0000 C   0  0  1  0  0  0  0  0  0  0  0  0
   18.5344   -1.9474    0.0000 C   0  0  0  0  0  0  0  0  0  0  0  0
   13.0831   -1.9940    0.0000 C   0  0  0  0  0  0  0  0  0  0  0  0
   21.3738   -1.9648    0.0000 C   0  0  0  0  0  0  0  0  0  0  0  0
   19.2924   -2.3788    0.0000 C   0  0  0  0  0  0  0  0  0  0  0  0
   17.8406   -2.3788    0.0000 C   0  0  0  0  0  0  0  0  0  0  0  0
   20.6741   -2.3904    0.0000 C   0  0  0  0  0  0  0  0  0  0  0  0
   22.0793   -2.3904    0.0000 C   0  0  0  0  0  0  0  0  0  0  0  0
   22.0909   -3.2183    0.0000 C   0  0  0  0  0  0  0  0  0  0  0  0
   21.3738   -3.6497    0.0000 C   0  0  0  0  0  0  0  0  0  0  0  0
   14.4999   -2.8335    0.0000 C   0  0  0  0  0  0  0  0  0  0  0  0
   20.6741   -3.2242    0.0000 C   0  0  0  0  0  0  0  0  0  0  0  0
   16.5363   -0.7969    0.0000 N   0  0  0  0  0  0  0  0  0  0  0  0
   17.7881   -0.7608    0.0000 N   0  0  0  0  0  0  0  0  0  0  0  0
   14.3862   -1.4605    0.0000 N   0  0  0  0  0  0  0  0  0  0  0  0
   22.8167   -2.0202    0.0000 O   0  0  0  0  0  0  0  0  0  0  0  0
   17.0973   -2.0028    0.0000 N   0  0  0  0  0  0  0  0  0  0  0  0
   14.9459   -3.6206    0.0000 O   0  0  0  0  0  0  0  0  0  0  0  0
   21.3824   -4.5213    0.0000 O   0  0  0  0  0  0  0  0  0  0  0  0
   17.5515   -4.8111    0.0000 N   0  0  0  0  0  0  0  0  0  0  0  0
   18.2921   -4.4347    0.0000 C   0  0  0  0  0  0  0  0  0  0  0  0
   18.9884   -4.8879    0.0000 N   0  0  0  0  0  0  0  0  0  0  0  0
   19.7290   -4.5114    0.0000 C   0  0  0  0  0  0  0  0  0  0  0  0
   20.4254   -4.9646    0.0000 O   0  0  0  0  0  0  0  0  0  0  0  0
   19.7734   -3.6818    0.0000 N   0  0  0  0  0  0  0  0  0  0  0  0
   19.0771   -3.2286    0.0000 C   0  0  0  0  0  0  0  0  0  0  0  0
   18.3365   -3.6051    0.0000 C   0  0  0  0  0  0  0  0  0  0  0  0
  7  8  1  0  0  0  0
  8  9  2  0  0  0  0
  9 10  1  0  0  0  0
 11 12  1  0  0  0  0
  1 14  2  0  0  0  0
 11 15  1  0  0  0  0
 16 15  1  0  0  0  0
 10 17  1  0  0  0  0
 14 18  1  0  0  0  0
  2 18  2  0  0  0  0
  3 19  1  0  0  0  0
  7 20  2  0  0  0  0
 17 20  1  0  0  0  0
 17 21  2  0  0  0  0
  7 22  1  0  0  0  0
 19 22  1  0  0  0  0
 19 23  2  0  0  0  0
 23 24  1  0  0  0  0
 24 25  2  0  0  0  0
 16 26  1  1  0  0  0
 22 27  2  0  0  0  0
 25 27  1  0  0  0  0
 11 28  1  1  0  0  0
 13 28  1  0  0  0  0
 10 29  2  0  0  0  0
 13 29  1  0  0  0  0
 12 30  1  0  0  0  0
 14 30  1  0  0  0  0
 16 30  1  0  0  0  0
  4 31  1  0  0  0  0
 23 31  1  0  0  0  0
 13 32  2  0  0  0  0
 21 32  1  0  0  0  0
  5 33  1  0  0  0  0
 26 33  1  0  0  0  0
  6 34  1  0  0  0  0
 25 34  1  0  0  0  0
 40 27  1  0  0  0  0
 35 36  1  0  0  0  0
 36 37  2  0  0  0  0
 37 38  1  0  0  0  0
 38 39  2  0  0  0  0
 38 40  1  0  0  0  0
 40 41  1  0  0  0  0
 41 42  2  0  0  0  0
 36 42  1  0  0  0  0
M  END
> <ID>
SCHEMBL21153931

> <InChIKey>
TXCFXIALWUTJKW-SFTDATJTSA-N

> <MW>
571.638

> <Series_Name>
Series_15

$$$$
SCHEMBL21153956
  Mrv1719007191910502D 0   0.00000     0.00000     0

 31 34  0  0  0  0              1 V2000 
    0.0310   -1.5828    0.0000 C   0  0  0  0  0  0  0  0  0  0  0  0
    9.3262   -1.0164    0.0000 Cl  0  0  0  0  0  0  0  0  0  0  0  0
   10.6685   -1.8543    0.0000 O   0  0  0  0  0  0  0  0  0  0  0  0
    7.6114   -3.5458    0.0000 C   0  0  0  0  0  0  0  0  0  0  0  0
    9.8228   -4.7640    0.0000 C   0  0  0  0  0  0  0  0  0  0  0  0
    7.8054   -1.8207    0.0000 C   0  0  0  0  0  0  0  0  0  0  0  0
    7.8054   -1.0242    0.0000 C   0  0  0  0  0  0  0  0  0  0  0  0
    7.0761   -0.5896    0.0000 C   0  0  0  0  0  0  0  0  0  0  0  0
    6.3519   -0.9880    0.0000 C   0  0  0  0  0  0  0  0  0  0  0  0
    6.3623   -1.8207    0.0000 C   0  0  0  0  0  0  0  0  0  0  0  0
    3.4708   -1.0449    0.0000 C   0  0  2  0  0  0  0  0  0  0  0  0
    2.7621   -0.6673    0.0000 C   0  0  0  0  0  0  0  0  0  0  0  0
    4.9295   -1.0139    0.0000 C   0  0  0  0  0  0  0  0  0  0  0  0
    3.3364   -1.8777    0.0000 C   0  0  0  0  0  0  0  0  0  0  0  0
    2.5604   -1.9863    0.0000 C   0  0  0  0  0  0  0  0  0  0  0  0
    0.8380   -1.7224    0.0000 C   0  0  0  0  0  0  0  0  0  0  0  0
    9.2330   -1.8207    0.0000 C   0  0  0  0  0  0  0  0  0  0  0  0
    8.4934   -2.2294    0.0000 C   0  0  0  0  0  0  0  0  0  0  0  0
    7.0917   -2.2345    0.0000 C   0  0  0  0  0  0  0  0  0  0  0  0
    5.6640   -2.2501    0.0000 C   0  0  0  0  0  0  0  0  0  0  0  0
    8.5037   -3.0466    0.0000 C   0  0  0  0  0  0  0  0  0  0  0  0
    9.9469   -2.2294    0.0000 C   0  0  0  0  0  0  0  0  0  0  0  0
    9.9313   -3.0880    0.0000 C   0  0  0  0  0  0  0  0  0  0  0  0
    9.2175   -3.5018    0.0000 C   0  0  0  0  0  0  0  0  0  0  0  0
    1.0940   -0.3491    0.0000 O   0  0  0  0  0  0  0  0  0  0  0  0
    1.3617   -1.0785    0.0000 C   0  0  0  0  0  0  0  0  0  0  0  0
    5.6485   -0.6363    0.0000 N   0  0  0  0  0  0  0  0  0  0  0  0
    4.9114   -1.8699    0.0000 N   0  0  0  0  0  0  0  0  0  0  0  0
    4.1377   -0.5779    0.0000 N   0  0  0  0  0  0  0  0  0  0  0  0
    2.1725   -1.2647    0.0000 N   0  0  0  0  0  0  0  0  0  0  0  0
    9.2098   -4.3449    0.0000 O   0  0  0  0  0  0  0  0  0  0  0  0
  6  7  1  0  0  0  0
  7  8  2  0  0  0  0
  8  9  1  0  0  0  0
  9 10  1  0  0  0  0
 11 12  1  0  0  0  0
 11 14  1  0  0  0  0
 14 15  1  0  0  0  0
  1 16  2  0  0  0  0
  2 17  1  0  0  0  0
  6 18  1  0  0  0  0
 17 18  1  0  0  0  0
  6 19  2  0  0  0  0
 10 19  1  0  0  0  0
 10 20  2  0  0  0  0
 18 21  2  0  0  0  0
  4 21  1  0  0  0  0
 17 22  2  0  0  0  0
  3 22  1  0  0  0  0
 22 23  1  0  0  0  0
 23 24  2  0  0  0  0
 21 24  1  0  0  0  0
 16 26  1  0  0  0  0
 25 26  2  0  0  0  0
  9 27  2  0  0  0  0
 13 27  1  0  0  0  0
 13 28  2  0  0  0  0
 20 28  1  0  0  0  0
 11 29  1  1  0  0  0
 13 29  1  0  0  0  0
 12 30  1  0  0  0  0
 15 30  1  0  0  0  0
 26 30  1  0  0  0  0
  5 31  1  0  0  0  0
 24 31  1  0  0  0  0
M  END
> <ID>
SCHEMBL21153956

> <InChIKey>
FTEZCSBQELMCSJ-INIZCTEOSA-N

> <MW>
438.91

> <Series_Name>
Series_15

$$$$
SCHEMBL21153994
  Mrv1719007191910562D 0   0.00000     0.00000     0

 47 52  0  0  0  0              1 V2000 
    1.8091   -0.5266    0.0000 O   0  0  0  0  0  0  0  0  0  0  0  0
    0.5096   -1.0702    0.0000 C   0  0  0  0  0  0  0  0  0  0  0  0
   10.0819   -1.0957    0.0000 C   0  0  0  0  0  0  0  0  0  0  0  0
    0.0339   -1.7497    0.0000 C   0  0  0  0  0  0  0  0  0  0  0  0
    0.3567   -2.5311    0.0000 C   0  0  0  0  0  0  0  0  0  0  0  0
   12.1119   -2.3103    0.0000 C   0  0  0  0  0  0  0  0  0  0  0  0
    8.4257   -3.6438    0.0000 Cl  0  0  0  0  0  0  0  0  0  0  0  0
    2.4802   -4.6205    0.0000 O   0  0  0  0  0  0  0  0  0  0  0  0
   10.7020   -4.8584    0.0000 C   0  0  0  0  0  0  0  0  0  0  0  0
    8.5616   -1.9082    0.0000 C   0  0  0  0  0  0  0  0  0  0  0  0
    8.4767   -1.0022    0.0000 C   0  0  0  0  0  0  0  0  0  0  0  0
    7.8141   -0.6625    0.0000 C   0  0  0  0  0  0  0  0  0  0  0  0
    7.1176   -1.0646    0.0000 C   0  0  0  0  0  0  0  0  0  0  0  0
    4.2638   -1.0646    0.0000 C   0  0  0  0  0  0  0  0  0  0  0  0
    3.5163   -0.7305    0.0000 C   0  0  0  0  0  0  0  0  0  0  0  0
    2.1914   -1.2627    0.0000 C   0  0  0  0  0  0  0  0  0  0  0  0
    5.6851   -1.0589    0.0000 C   0  0  0  0  0  0  0  0  0  0  0  0
    0.8069   -1.8559    0.0000 C   0  0  0  0  0  0  0  0  0  0  0  0
    4.1788   -1.8856    0.0000 C   0  0  0  0  0  0  0  0  0  0  0  0
    3.3748   -2.0725    0.0000 C   0  0  0  0  0  0  0  0  0  0  0  0
    7.1176   -1.9082    0.0000 C   0  0  0  0  0  0  0  0  0  0  0  0
    9.9885   -1.9082    0.0000 C   0  0  0  0  0  0  0  0  0  0  0  0
    6.4382   -2.3103    0.0000 C   0  0  0  0  0  0  0  0  0  0  0  0
    7.8821   -2.3103    0.0000 C   0  0  0  0  0  0  0  0  0  0  0  0
    9.2638   -2.3217    0.0000 C   0  0  0  0  0  0  0  0  0  0  0  0
    9.2751   -3.1653    0.0000 C   0  0  0  0  0  0  0  0  0  0  0  0
   10.7020   -2.3217    0.0000 C   0  0  0  0  0  0  0  0  0  0  0  0
    3.0746   -2.7689    0.0000 C   0  0  0  0  0  0  0  0  0  0  0  0
   10.7020   -3.1766    0.0000 C   0  0  0  0  0  0  0  0  0  0  0  0
    9.9885   -3.5787    0.0000 C   0  0  0  0  0  0  0  0  0  0  0  0
    4.5865   -4.3373    0.0000 C   0  0  0  0  0  0  0  0  0  0  0  0
    3.9410   -4.8187    0.0000 C   0  0  0  0  0  0  0  0  0  0  0  0
    4.0259   -5.6738    0.0000 C   0  0  0  0  0  0  0  0  0  0  0  0
    4.7903   -5.9965    0.0000 C   0  0  0  0  0  0  0  0  0  0  0  0
    5.3850   -5.5718    0.0000 C   0  0  0  0  0  0  0  0  0  0  0  0
    5.3680   -4.6715    0.0000 C   0  0  0  0  0  0  0  0  0  0  0  0
    4.3218   -3.5390    0.0000 C   0  0  0  0  0  0  0  0  0  0  0  0
    4.8414   -2.8878    0.0000 O   0  0  0  0  0  0  0  0  0  0  0  0
    3.2701   -4.3232    0.0000 C   0  0  0  0  0  0  0  0  0  0  0  0
    2.9643   -1.3845    0.0000 N   0  0  0  0  0  0  0  0  0  0  0  0
    1.6562   -1.9790    0.0000 O   0  0  0  0  0  0  0  0  0  0  0  0
    4.9772   -0.6794    0.0000 N   0  0  0  0  0  0  0  0  0  0  0  0
    5.6992   -1.9365    0.0000 N   0  0  0  0  0  0  0  0  0  0  0  0
    6.4127   -0.6794    0.0000 N   0  0  0  0  0  0  0  0  0  0  0  0
    3.5248   -3.5674    0.0000 N   0  0  0  0  0  0  0  0  0  0  0  0
    9.9970   -4.4676    0.0000 O   0  0  0  0  0  0  0  0  0  0  0  0
   11.4239   -1.9365    0.0000 O   0  0  0  0  0  0  0  0  0  0  0  0
 10 11  1  0  0  0  0
 11 12  2  0  0  0  0
 12 13  1  0  0  0  0
 14 15  1  0  0  0  0
  1 16  2  0  0  0  0
  2 18  1  0  0  0  0
  4 18  1  0  0  0  0
  5 18  1  0  0  0  0
 14 19  1  0  0  0  0
 19 20  1  0  0  0  0
 13 21  1  0  0  0  0
  3 22  1  0  0  0  0
 21 23  2  0  0  0  0
 10 24  2  0  0  0  0
 21 24  1  0  0  0  0
 10 25  1  0  0  0  0
 22 25  1  0  0  0  0
 25 26  2  0  0  0  0
  7 26  1  0  0  0  0
 22 27  2  0  0  0  0
 20 28  1  0  0  0  0
 27 29  1  0  0  0  0
 29 30  2  0  0  0  0
 26 30  1  0  0  0  0
 31 32  2  0  0  0  0
 32 33  1  0  0  0  0
 33 34  2  0  0  0  0
 34 35  1  0  0  0  0
 35 36  2  0  0  0  0
 31 36  1  0  0  0  0
 31 37  1  0  0  0  0
 37 38  2  0  0  0  0
  8 39  2  0  0  0  0
 32 39  1  0  0  0  0
 15 40  1  0  0  0  0
 16 40  1  0  0  0  0
 20 40  1  0  0  0  0
 16 41  1  0  0  0  0
 18 41  1  0  0  0  0
 14 42  1  0  0  0  0
 17 42  1  0  0  0  0
 17 43  2  0  0  0  0
 23 43  1  0  0  0  0
 13 44  2  0  0  0  0
 17 44  1  0  0  0  0
 28 45  1  0  0  0  0
 37 45  1  0  0  0  0
 39 45  1  0  0  0  0
  9 46  1  0  0  0  0
 30 46  1  0  0  0  0
  6 47  1  0  0  0  0
 27 47  1  0  0  0  0
M  END
> <ID>
SCHEMBL21153994

> <InChIKey>
UTSRBSYMLFUFLO-UHFFFAOYSA-N

> <MW>
658.15

> <Series_Name>
Series_15

$$$$
SCHEMBL21154026
  Mrv1719007191910592D 0   0.00000     0.00000     0

 39 43  0  0  0  0              1 V2000 
   27.2521   -1.0915    0.0000 C   0  0  0  0  0  0  0  0  0  0  0  0
   16.6787   -1.8759    0.0000 C   0  0  0  0  0  0  0  0  0  0  0  0
   25.9134   -1.1256    0.0000 C   0  0  0  0  0  0  0  0  0  0  0  0
   18.0856   -2.9759    0.0000 O   0  0  0  0  0  0  0  0  0  0  0  0
   24.2250   -3.6069    0.0000 Cl  0  0  0  0  0  0  0  0  0  0  0  0
   26.5188   -4.8092    0.0000 C   0  0  0  0  0  0  0  0  0  0  0  0
   24.4041   -1.9157    0.0000 C   0  0  0  0  0  0  0  0  0  0  0  0
   24.3018   -1.0232    0.0000 C   0  0  0  0  0  0  0  0  0  0  0  0
   23.6879   -0.6822    0.0000 C   0  0  0  0  0  0  0  0  0  0  0  0
   22.9716   -1.0857    0.0000 C   0  0  0  0  0  0  0  0  0  0  0  0
   20.1236   -1.0857    0.0000 C   0  0  0  0  0  0  0  0  0  0  0  0
   19.3562   -0.7674    0.0000 C   0  0  0  0  0  0  0  0  0  0  0  0
   21.5391   -1.0857    0.0000 C   0  0  0  0  0  0  0  0  0  0  0  0
   20.0383   -1.9100    0.0000 C   0  0  0  0  0  0  0  0  0  0  0  0
   19.2311   -2.0806    0.0000 C   0  0  0  0  0  0  0  0  0  0  0  0
   22.9830   -1.9157    0.0000 C   0  0  0  0  0  0  0  0  0  0  0  0
   17.5144   -1.9612    0.0000 C   0  0  0  0  0  0  0  0  0  0  0  0
   25.8310   -1.9157    0.0000 C   0  0  0  0  0  0  0  0  0  0  0  0
   23.6879   -2.3364    0.0000 C   0  0  0  0  0  0  0  0  0  0  0  0
   22.2554   -2.3364    0.0000 C   0  0  0  0  0  0  0  0  0  0  0  0
   25.1034   -2.3307    0.0000 C   0  0  0  0  0  0  0  0  0  0  0  0
   26.5358   -2.3307    0.0000 C   0  0  0  0  0  0  0  0  0  0  0  0
   18.9298   -2.9048    0.0000 C   0  0  0  0  0  0  0  0  0  0  0  0
   25.1261   -3.1607    0.0000 C   0  0  0  0  0  0  0  0  0  0  0  0
   26.5358   -3.1550    0.0000 C   0  0  0  0  0  0  0  0  0  0  0  0
   25.8196   -3.5756    0.0000 C   0  0  0  0  0  0  0  0  0  0  0  0
   19.1345   -4.3146    0.0000 C   0  0  0  0  0  0  0  0  0  0  0  0
   19.7655   -4.7751    0.0000 C   0  0  0  0  0  0  0  0  0  0  0  0
   20.4135   -4.3488    0.0000 C   0  0  0  0  0  0  0  0  0  0  0  0
   20.2089   -3.5301    0.0000 C   0  0  0  0  0  0  0  0  0  0  0  0
   17.6678   -0.5628    0.0000 O   0  0  0  0  0  0  0  0  0  0  0  0
   18.0075   -1.3131    0.0000 C   0  0  0  0  0  0  0  0  0  0  0  0
   22.2639   -0.7162    0.0000 N   0  0  0  0  0  0  0  0  0  0  0  0
   20.8314   -0.7162    0.0000 N   0  0  0  0  0  0  0  0  0  0  0  0
   18.8190   -1.4155    0.0000 N   0  0  0  0  0  0  0  0  0  0  0  0
   21.5476   -1.9612    0.0000 N   0  0  0  0  0  0  0  0  0  0  0  0
   25.8281   -4.4426    0.0000 O   0  0  0  0  0  0  0  0  0  0  0  0
   27.2607   -1.9527    0.0000 O   0  0  0  0  0  0  0  0  0  0  0  0
   19.3818   -3.5642    0.0000 N   0  0  0  0  0  0  0  0  0  0  0  0
  7  8  1  0  0  0  0
  8  9  2  0  0  0  0
  9 10  1  0  0  0  0
 11 12  1  0  0  0  0
 11 14  1  0  0  0  0
 14 15  1  0  0  0  0
 10 16  1  0  0  0  0
  2 17  2  0  0  0  0
  3 18  1  0  0  0  0
  7 19  2  0  0  0  0
 16 19  1  0  0  0  0
 16 20  2  0  0  0  0
  7 21  1  0  0  0  0
 18 21  1  0  0  0  0
 18 22  2  0  0  0  0
 15 23  1  0  0  0  0
  4 23  2  0  0  0  0
 21 24  2  0  0  0  0
  5 24  1  0  0  0  0
 22 25  1  0  0  0  0
 25 26  2  0  0  0  0
 24 26  1  0  0  0  0
 27 28  1  0  0  0  0
 28 29  1  0  0  0  0
 29 30  1  0  0  0  0
 17 32  1  0  0  0  0
 31 32  2  0  0  0  0
 10 33  2  0  0  0  0
 13 33  1  0  0  0  0
 11 34  1  0  0  0  0
 13 34  1  0  0  0  0
 12 35  1  0  0  0  0
 15 35  1  0  0  0  0
 32 35  1  0  0  0  0
 13 36  2  0  0  0  0
 20 36  1  0  0  0  0
  6 37  1  0  0  0  0
 26 37  1  0  0  0  0
  1 38  1  0  0  0  0
 22 38  1  0  0  0  0
 23 39  1  0  0  0  0
 27 39  1  0  0  0  0
 30 39  1  0  0  0  0
M  END
> <ID>
SCHEMBL21154026

> <InChIKey>
VSILISQDSYJFLJ-UHFFFAOYSA-N

> <MW>
550.06

> <Series_Name>
Series_15

$$$$
SCHEMBL21154031
  Mrv1719007191911002D 0   0.00000     0.00000     0

 38 42  0  0  0  0              1 V2000 
   16.3902   -0.5191    0.0000 O   0  0  0  0  0  0  0  0  0  0  0  0
   26.0014   -1.0535    0.0000 C   0  0  0  0  0  0  0  0  0  0  0  0
   15.4207   -1.8627    0.0000 C   0  0  0  0  0  0  0  0  0  0  0  0
   24.6655   -1.0916    0.0000 Cl  0  0  0  0  0  0  0  0  0  0  0  0
   22.9784   -3.6261    0.0000 Cl  0  0  0  0  0  0  0  0  0  0  0  0
   25.2992   -4.8400    0.0000 C   0  0  0  0  0  0  0  0  0  0  0  0
   23.1463   -1.9136    0.0000 C   0  0  0  0  0  0  0  0  0  0  0  0
   23.1463   -1.0688    0.0000 C   0  0  0  0  0  0  0  0  0  0  0  0
   22.4593   -0.6565    0.0000 C   0  0  0  0  0  0  0  0  0  0  0  0
   21.7060   -1.0586    0.0000 C   0  0  0  0  0  0  0  0  0  0  0  0
   21.7111   -1.9136    0.0000 C   0  0  0  0  0  0  0  0  0  0  0  0
   18.8560   -1.0636    0.0000 C   0  0  0  0  0  0  0  0  0  0  0  0
   18.0926   -0.7328    0.0000 C   0  0  0  0  0  0  0  0  0  0  0  0
   16.7796   -1.2571    0.0000 C   0  0  0  0  0  0  0  0  0  0  0  0
   20.2810   -1.0484    0.0000 C   0  0  0  0  0  0  0  0  0  0  0  0
   18.7796   -1.8779    0.0000 C   0  0  0  0  0  0  0  0  0  0  0  0
   17.9654   -2.0765    0.0000 C   0  0  0  0  0  0  0  0  0  0  0  0
   16.2299   -1.9391    0.0000 C   0  0  0  0  0  0  0  0  0  0  0  0
   24.5662   -1.9136    0.0000 C   0  0  0  0  0  0  0  0  0  0  0  0
   21.0088   -2.3207    0.0000 C   0  0  0  0  0  0  0  0  0  0  0  0
   22.4287   -2.3207    0.0000 C   0  0  0  0  0  0  0  0  0  0  0  0
   23.8537   -2.3156    0.0000 C   0  0  0  0  0  0  0  0  0  0  0  0
   23.8639   -3.1656    0.0000 C   0  0  0  0  0  0  0  0  0  0  0  0
   25.2839   -2.3156    0.0000 C   0  0  0  0  0  0  0  0  0  0  0  0
   25.2839   -3.1605    0.0000 C   0  0  0  0  0  0  0  0  0  0  0  0
   24.5662   -3.5829    0.0000 C   0  0  0  0  0  0  0  0  0  0  0  0
   18.0010   -4.3666    0.0000 C   0  0  0  0  0  0  0  0  0  0  0  0
   18.7796   -4.4889    0.0000 C   0  0  0  0  0  0  0  0  0  0  0  0
   18.9171   -3.6643    0.0000 C   0  0  0  0  0  0  0  0  0  0  0  0
   17.6600   -2.8271    0.0000 C   0  0  0  0  0  0  0  0  0  0  0  0
   16.8025   -2.9696    0.0000 O   0  0  0  0  0  0  0  0  0  0  0  0
   17.5430   -1.3818    0.0000 N   0  0  0  0  0  0  0  0  0  0  0  0
   20.9935   -0.6718    0.0000 N   0  0  0  0  0  0  0  0  0  0  0  0
   19.5736   -0.6718    0.0000 N   0  0  0  0  0  0  0  0  0  0  0  0
   20.2912   -1.9391    0.0000 N   0  0  0  0  0  0  0  0  0  0  0  0
   18.1079   -3.5651    0.0000 N   0  0  0  0  0  0  0  0  0  0  0  0
   24.5739   -4.4659    0.0000 O   0  0  0  0  0  0  0  0  0  0  0  0
   26.0091   -1.9314    0.0000 O   0  0  0  0  0  0  0  0  0  0  0  0
  7  8  1  0  0  0  0
  8  9  2  0  0  0  0
  9 10  1  0  0  0  0
 10 11  1  0  0  0  0
 12 13  1  0  0  0  0
  1 14  2  0  0  0  0
 12 16  1  0  0  0  0
 16 17  1  0  0  0  0
 14 18  1  0  0  0  0
  3 18  2  0  0  0  0
  4 19  1  0  0  0  0
 11 20  2  0  0  0  0
  7 21  2  0  0  0  0
 11 21  1  0  0  0  0
  7 22  1  0  0  0  0
 19 22  1  0  0  0  0
 22 23  2  0  0  0  0
  5 23  1  0  0  0  0
 19 24  2  0  0  0  0
 24 25  1  0  0  0  0
 25 26  2  0  0  0  0
 23 26  1  0  0  0  0
 27 28  1  0  0  0  0
 28 29  1  0  0  0  0
 17 30  1  0  0  0  0
 30 31  2  0  0  0  0
 13 32  1  0  0  0  0
 14 32  1  0  0  0  0
 17 32  1  0  0  0  0
 10 33  2  0  0  0  0
 15 33  1  0  0  0  0
 12 34  1  0  0  0  0
 15 34  1  0  0  0  0
 15 35  2  0  0  0  0
 20 35  1  0  0  0  0
 27 36  1  0  0  0  0
 29 36  1  0  0  0  0
 30 36  1  0  0  0  0
  6 37  1  0  0  0  0
 26 37  1  0  0  0  0
  2 38  1  0  0  0  0
 24 38  1  0  0  0  0
M  END
> <ID>
SCHEMBL21154031

> <InChIKey>
VEXKLSAYHRBZMG-UHFFFAOYSA-N

> <MW>
556.44

> <Series_Name>
Series_15

$$$$
SCHEMBL21154047
  Mrv1719007191911262D 0   0.00000     0.00000     0

 30 33  0  0  0  0              1 V2000 
   26.1387   -0.0319    0.0000 C   0  0  0  0  0  0  0  0  0  0  0  0
   23.8380   -1.3021    0.0000 Cl  0  0  0  0  0  0  0  0  0  0  0  0
   27.5926   -2.4605    0.0000 C   0  0  0  0  0  0  0  0  0  0  0  0
   25.5156   -3.7307    0.0000 Cl  0  0  0  0  0  0  0  0  0  0  0  0
   25.4037   -1.2516    0.0000 C   0  0  0  0  0  0  0  0  0  0  0  0
   24.6848   -1.6563    0.0000 C   0  0  0  0  0  0  0  0  0  0  0  0
   26.1387   -2.4658    0.0000 C   0  0  0  0  0  0  0  0  0  0  0  0
   26.1387   -1.6457    0.0000 C   0  0  0  0  0  0  0  0  0  0  0  0
   24.7008   -2.4658    0.0000 C   0  0  0  0  0  0  0  0  0  0  0  0
   23.9818   -2.8865    0.0000 C   0  0  0  0  0  0  0  0  0  0  0  0
   23.2309   -2.4764    0.0000 C   0  0  0  0  0  0  0  0  0  0  0  0
   22.5438   -2.9026    0.0000 C   0  0  0  0  0  0  0  0  0  0  0  0
   25.4091   -2.8865    0.0000 C   0  0  0  0  0  0  0  0  0  0  0  0
   21.8728   -2.4924    0.0000 C   0  0  0  0  0  0  0  0  0  0  0  0
   19.6679   -3.7120    0.0000 C   0  0  0  0  0  0  0  0  0  0  0  0
   19.5401   -2.8919    0.0000 C   0  0  0  0  0  0  0  0  0  0  0  0
   18.7732   -2.7480    0.0000 C   0  0  0  0  0  0  0  0  0  0  0  0
   23.8699   -3.7866    0.0000 C   0  0  0  0  0  0  0  0  0  0  0  0
   23.2309   -4.1062    0.0000 C   0  0  0  0  0  0  0  0  0  0  0  0
   22.5438   -3.7120    0.0000 C   0  0  0  0  0  0  0  0  0  0  0  0
   21.1059   -3.7120    0.0000 C   0  0  0  0  0  0  0  0  0  0  0  0
   18.9010   -4.0422    0.0000 C   0  0  0  0  0  0  0  0  0  0  0  0
   17.5909   -3.5416    0.0000 C   0  0  0  0  0  0  0  0  0  0  0  0
   17.1915   -4.2978    0.0000 O   0  0  0  0  0  0  0  0  0  0  0  0
   21.1138   -2.9399    0.0000 N   0  0  0  0  0  0  0  0  0  0  0  0
   18.3497   -3.4830    0.0000 N   0  0  0  0  0  0  0  0  0  0  0  0
   21.8328   -4.1541    0.0000 N   0  0  0  0  0  0  0  0  0  0  0  0
   20.3949   -4.1541    0.0000 N   0  0  0  0  0  0  0  0  0  0  0  0
   25.4037   -0.4633    0.0000 O   0  0  0  0  0  0  0  0  0  0  0  0
   26.8657   -2.9159    0.0000 O   0  0  0  0  0  0  0  0  0  0  0  0
  5  6  2  0  0  0  0
  2  6  1  0  0  0  0
  7  8  2  0  0  0  0
  5  8  1  0  0  0  0
  6  9  1  0  0  0  0
  9 10  1  0  0  0  0
 10 11  2  0  0  0  0
 11 12  1  0  0  0  0
  9 13  2  0  0  0  0
  7 13  1  0  0  0  0
  4 13  1  0  0  0  0
 12 14  2  0  0  0  0
 15 16  1  0  0  0  0
 16 17  1  0  0  0  0
 10 18  1  0  0  0  0
 18 19  2  0  0  0  0
 19 20  1  0  0  0  0
 12 20  1  0  0  0  0
 15 22  1  0  0  0  0
 23 24  2  0  0  0  0
 14 25  1  0  0  0  0
 21 25  2  0  0  0  0
 17 26  1  0  0  0  0
 22 26  1  0  0  0  0
 23 26  1  0  0  0  0
 20 27  2  0  0  0  0
 21 27  1  0  0  0  0
 15 28  1  0  0  0  0
 21 28  1  0  0  0  0
  1 29  1  0  0  0  0
  5 29  1  0  0  0  0
  3 30  1  0  0  0  0
  7 30  1  0  0  0  0
M  END
> <ID>
SCHEMBL21154047

> <InChIKey>
LZOGKWKHADSBNW-UHFFFAOYSA-N

> <MW>
447.32

> <Series_Name>
Series_15

$$$$
SCHEMBL21154050
  Mrv1719007191911282D 0   0.00000     0.00000     0

 30 33  0  0  0  0              1 V2000 
    9.9125   -0.0287    0.0000 C   0  0  0  0  0  0  0  0  0  0  0  0
    7.5815   -1.2767    0.0000 C   0  0  0  0  0  0  0  0  0  0  0  0
    9.3029   -3.7297    0.0000 C   0  0  0  0  0  0  0  0  0  0  0  0
   11.3614   -2.4674    0.0000 C   0  0  0  0  0  0  0  0  0  0  0  0
    9.1953   -1.2385    0.0000 C   0  0  0  0  0  0  0  0  0  0  0  0
    8.4781   -1.6593    0.0000 C   0  0  0  0  0  0  0  0  0  0  0  0
    9.9317   -2.4578    0.0000 C   0  0  0  0  0  0  0  0  0  0  0  0
    9.9269   -1.6497    0.0000 C   0  0  0  0  0  0  0  0  0  0  0  0
    8.4924   -2.4722    0.0000 C   0  0  0  0  0  0  0  0  0  0  0  0
    9.2048   -2.8882    0.0000 C   0  0  0  0  0  0  0  0  0  0  0  0
    7.7799   -2.8786    0.0000 C   0  0  0  0  0  0  0  0  0  0  0  0
    7.0435   -2.4817    0.0000 C   0  0  0  0  0  0  0  0  0  0  0  0
    6.3406   -2.8930    0.0000 C   0  0  0  0  0  0  0  0  0  0  0  0
    7.7464   -3.7297    0.0000 C   0  0  0  0  0  0  0  0  0  0  0  0
    7.0435   -4.1028    0.0000 C   0  0  0  0  0  0  0  0  0  0  0  0
    6.3406   -3.7058    0.0000 C   0  0  0  0  0  0  0  0  0  0  0  0
    5.6377   -2.4961    0.0000 C   0  0  0  0  0  0  0  0  0  0  0  0
    3.4572   -3.6915    0.0000 C   0  0  0  0  0  0  0  0  0  0  0  0
    3.3711   -2.8977    0.0000 C   0  0  0  0  0  0  0  0  0  0  0  0
    2.5678   -2.7400    0.0000 C   0  0  0  0  0  0  0  0  0  0  0  0
    4.9204   -3.6915    0.0000 C   0  0  0  0  0  0  0  0  0  0  0  0
    2.6969   -4.0310    0.0000 C   0  0  0  0  0  0  0  0  0  0  0  0
    1.3915   -3.5241    0.0000 C   0  0  0  0  0  0  0  0  0  0  0  0
    0.9898   -4.2892    0.0000 O   0  0  0  0  0  0  0  0  0  0  0  0
    4.1971   -4.0934    0.0000 N   0  0  0  0  0  0  0  0  0  0  0  0
    5.6233   -4.1457    0.0000 N   0  0  0  0  0  0  0  0  0  0  0  0
    2.1590   -3.4644    0.0000 N   0  0  0  0  0  0  0  0  0  0  0  0
    4.9061   -2.9193    0.0000 N   0  0  0  0  0  0  0  0  0  0  0  0
   10.6585   -2.9049    0.0000 O   0  0  0  0  0  0  0  0  0  0  0  0
    9.2024   -0.4591    0.0000 O   0  0  0  0  0  0  0  0  0  0  0  0
  5  6  2  0  0  0  0
  2  6  1  0  0  0  0
  7  8  2  0  0  0  0
  5  8  1  0  0  0  0
  6  9  1  0  0  0  0
  7 10  1  0  0  0  0
  3 10  1  0  0  0  0
  9 10  2  0  0  0  0
  9 11  1  0  0  0  0
 11 12  2  0  0  0  0
 12 13  1  0  0  0  0
 11 14  1  0  0  0  0
 14 15  2  0  0  0  0
 15 16  1  0  0  0  0
 13 16  1  0  0  0  0
 13 17  2  0  0  0  0
 18 19  1  0  0  0  0
 19 20  1  0  0  0  0
 18 22  1  0  0  0  0
 23 24  2  0  0  0  0
 18 25  1  0  0  0  0
 21 25  1  0  0  0  0
 16 26  2  0  0  0  0
 21 26  1  0  0  0  0
 20 27  1  0  0  0  0
 22 27  1  0  0  0  0
 23 27  1  0  0  0  0
 17 28  1  0  0  0  0
 21 28  2  0  0  0  0
  4 29  1  0  0  0  0
  7 29  1  0  0  0  0
  1 30  1  0  0  0  0
  5 30  1  0  0  0  0
M  END
> <ID>
SCHEMBL21154050

> <InChIKey>
TUAUUBBXMFAVHE-UHFFFAOYSA-N

> <MW>
406.486

> <Series_Name>
Series_15

$$$$
SCHEMBL21154053
  Mrv1719007191911292D 0   0.00000     0.00000     0

 34 38  0  0  0  0              1 V2000 
   22.7067   -1.0660    0.0000 C   0  0  0  0  0  0  0  0  0  0  0  0
   21.3970   -1.0889    0.0000 Cl  0  0  0  0  0  0  0  0  0  0  0  0
   19.7066   -3.6169    0.0000 Cl  0  0  0  0  0  0  0  0  0  0  0  0
   22.0215   -4.8581    0.0000 C   0  0  0  0  0  0  0  0  0  0  0  0
   19.8893   -1.8935    0.0000 C   0  0  0  0  0  0  0  0  0  0  0  0
   19.8893   -1.0965    0.0000 C   0  0  0  0  0  0  0  0  0  0  0  0
   19.1735   -0.6549    0.0000 C   0  0  0  0  0  0  0  0  0  0  0  0
   18.4730   -1.0762    0.0000 C   0  0  0  0  0  0  0  0  0  0  0  0
   15.6404   -1.0762    0.0000 C   0  0  2  0  0  0  0  0  0  0  0  0
   14.8789   -0.7463    0.0000 C   0  0  0  0  0  0  0  0  0  0  0  0
   17.0567   -1.0762    0.0000 C   0  0  0  0  0  0  0  0  0  0  0  0
   15.5642   -1.8732    0.0000 C   0  0  0  0  0  0  0  0  0  0  0  0
   14.7673   -2.0864    0.0000 C   0  0  0  0  0  0  0  0  0  0  0  0
   18.4730   -1.9087    0.0000 C   0  0  0  0  0  0  0  0  0  0  0  0
   21.3056   -1.9087    0.0000 C   0  0  0  0  0  0  0  0  0  0  0  0
   20.5797   -2.3250    0.0000 C   0  0  0  0  0  0  0  0  0  0  0  0
   19.1887   -2.3300    0.0000 C   0  0  0  0  0  0  0  0  0  0  0  0
   17.7573   -2.3300    0.0000 C   0  0  0  0  0  0  0  0  0  0  0  0
   20.5899   -3.1880    0.0000 C   0  0  0  0  0  0  0  0  0  0  0  0
   22.0063   -2.3250    0.0000 C   0  0  0  0  0  0  0  0  0  0  0  0
   22.0063   -3.1829    0.0000 C   0  0  0  0  0  0  0  0  0  0  0  0
   21.3056   -3.6042    0.0000 C   0  0  0  0  0  0  0  0  0  0  0  0
   14.8028   -4.3708    0.0000 C   0  0  0  0  0  0  0  0  0  0  0  0
   15.5642   -4.4926    0.0000 C   0  0  0  0  0  0  0  0  0  0  0  0
   15.7013   -3.6855    0.0000 C   0  0  0  0  0  0  0  0  0  0  0  0
   14.4627   -2.8427    0.0000 C   0  0  0  0  0  0  0  0  0  0  0  0
   13.6301   -2.9697    0.0000 O   0  0  0  0  0  0  0  0  0  0  0  0
   14.1479   -1.3859    0.0000 N   0  0  0  0  0  0  0  0  0  0  0  0
   17.7573   -0.6853    0.0000 N   0  0  0  0  0  0  0  0  0  0  0  0
   16.3561   -0.6853    0.0000 N   0  0  0  0  0  0  0  0  0  0  0  0
   14.9093   -3.5636    0.0000 N   0  0  0  0  0  0  0  0  0  0  0  0
   17.0567   -1.9493    0.0000 N   0  0  0  0  0  0  0  0  0  0  0  0
   22.7144   -1.9493    0.0000 O   0  0  0  0  0  0  0  0  0  0  0  0
   21.3133   -4.4850    0.0000 O   0  0  0  0  0  0  0  0  0  0  0  0
  5  6  1  0  0  0  0
  6  7  2  0  0  0  0
  7  8  1  0  0  0  0
  9 10  1  0  0  0  0
  9 12  1  0  0  0  0
 12 13  1  0  0  0  0
  8 14  1  0  0  0  0
  2 15  1  0  0  0  0
  5 16  1  0  0  0  0
 15 16  1  0  0  0  0
  5 17  2  0  0  0  0
 14 17  1  0  0  0  0
 14 18  2  0  0  0  0
 16 19  2  0  0  0  0
  3 19  1  0  0  0  0
 15 20  2  0  0  0  0
 20 21  1  0  0  0  0
 21 22  2  0  0  0  0
 19 22  1  0  0  0  0
 23 24  1  0  0  0  0
 24 25  1  0  0  0  0
 13 26  1  0  0  0  0
 26 27  2  0  0  0  0
 10 28  1  0  0  0  0
 13 28  1  0  0  0  0
  8 29  2  0  0  0  0
 11 29  1  0  0  0  0
  9 30  1  1  0  0  0
 11 30  1  0  0  0  0
 23 31  1  0  0  0  0
 25 31  1  0  0  0  0
 26 31  1  0  0  0  0
 11 32  2  0  0  0  0
 18 32  1  0  0  0  0
  1 33  1  0  0  0  0
 20 33  1  0  0  0  0
  4 34  1  0  0  0  0
 22 34  1  0  0  0  0
M  END
> <ID>
SCHEMBL21154053

> <InChIKey>
QXACVQMEFYGVRP-MYJWUSKBSA-N

> <MW>
502.4

> <Series_Name>
Series_15

$$$$
SCHEMBL21154056
  Mrv1719007191911302D 0   0.00000     0.00000     0

 39 43  0  0  0  0              1 V2000 
   10.7603   -1.0299    0.0000 C   0  0  0  0  0  0  0  0  0  0  0  0
    0.0000   -1.7831    0.0000 C   0  0  0  0  0  0  0  0  0  0  0  0
    9.3922   -1.0299    0.0000 C   0  0  0  0  0  0  0  0  0  0  0  0
    7.6936   -3.5201    0.0000 C   0  0  0  0  0  0  0  0  0  0  0  0
   10.0225   -4.7038    0.0000 C   0  0  0  0  0  0  0  0  0  0  0  0
    7.8550   -1.8344    0.0000 C   0  0  0  0  0  0  0  0  0  0  0  0
    7.7474   -0.9377    0.0000 C   0  0  0  0  0  0  0  0  0  0  0  0
    7.0864   -0.6149    0.0000 C   0  0  0  0  0  0  0  0  0  0  0  0
    6.3947   -1.0094    0.0000 C   0  0  0  0  0  0  0  0  0  0  0  0
    3.4843   -1.0197    0.0000 C   0  0  0  0  0  0  0  0  0  0  0  0
    2.7055   -0.6917    0.0000 C   0  0  0  0  0  0  0  0  0  0  0  0
    4.9497   -1.0094    0.0000 C   0  0  0  0  0  0  0  0  0  0  0  0
    3.3972   -1.8446    0.0000 C   0  0  0  0  0  0  0  0  0  0  0  0
    2.5927   -1.9983    0.0000 C   0  0  0  0  0  0  0  0  0  0  0  0
    6.3947   -1.8344    0.0000 C   0  0  0  0  0  0  0  0  0  0  0  0
    0.8301   -1.8753    0.0000 C   0  0  0  0  0  0  0  0  0  0  0  0
    9.3000   -1.8344    0.0000 C   0  0  0  0  0  0  0  0  0  0  0  0
    5.6876   -2.2443    0.0000 C   0  0  0  0  0  0  0  0  0  0  0  0
    7.1325   -2.2443    0.0000 C   0  0  0  0  0  0  0  0  0  0  0  0
    8.5673   -2.2392    0.0000 C   0  0  0  0  0  0  0  0  0  0  0  0
    8.5775   -3.0641    0.0000 C   0  0  0  0  0  0  0  0  0  0  0  0
   10.0378   -2.2545    0.0000 C   0  0  0  0  0  0  0  0  0  0  0  0
   10.0378   -3.0590    0.0000 C   0  0  0  0  0  0  0  0  0  0  0  0
    9.3000   -3.4843    0.0000 C   0  0  0  0  0  0  0  0  0  0  0  0
    2.4902   -4.2119    0.0000 C   0  0  0  0  0  0  0  0  0  0  0  0
    3.1512   -4.6885    0.0000 C   0  0  0  0  0  0  0  0  0  0  0  0
    3.7661   -4.2580    0.0000 C   0  0  0  0  0  0  0  0  0  0  0  0
    3.5970   -3.4587    0.0000 C   0  0  0  0  0  0  0  0  0  0  0  0
    2.2853   -2.7388    0.0000 C   0  0  0  0  0  0  0  0  0  0  0  0
    1.4219   -2.8668    0.0000 O   0  0  0  0  0  0  0  0  0  0  0  0
    0.9992   -0.4765    0.0000 O   0  0  0  0  0  0  0  0  0  0  0  0
    1.3438   -1.2144    0.0000 C   0  0  0  0  0  0  0  0  0  0  0  0
    4.2118   -0.5853    0.0000 N   0  0  0  0  0  0  0  0  0  0  0  0
    2.1597   -1.3143    0.0000 N   0  0  0  0  0  0  0  0  0  0  0  0
    2.7362   -3.4663    0.0000 N   0  0  0  0  0  0  0  0  0  0  0  0
    4.9497   -1.8677    0.0000 N   0  0  0  0  0  0  0  0  0  0  0  0
    5.6646   -0.6379    0.0000 N   0  0  0  0  0  0  0  0  0  0  0  0
    9.3077   -4.3348    0.0000 O   0  0  0  0  0  0  0  0  0  0  0  0
   10.7527   -1.8753    0.0000 O   0  0  0  0  0  0  0  0  0  0  0  0
  6  7  1  0  0  0  0
  7  8  2  0  0  0  0
  8  9  1  0  0  0  0
 10 11  1  0  0  0  0
 10 13  1  0  0  0  0
 13 14  1  0  0  0  0
  9 15  1  0  0  0  0
  2 16  2  0  0  0  0
  3 17  1  0  0  0  0
 15 18  2  0  0  0  0
  6 19  2  0  0  0  0
 15 19  1  0  0  0  0
  6 20  1  0  0  0  0
 17 20  1  0  0  0  0
 20 21  2  0  0  0  0
  4 21  1  0  0  0  0
 17 22  2  0  0  0  0
 22 23  1  0  0  0  0
 23 24  2  0  0  0  0
 21 24  1  0  0  0  0
 25 26  1  0  0  0  0
 26 27  1  0  0  0  0
 27 28  1  0  0  0  0
 14 29  1  0  0  0  0
 29 30  2  0  0  0  0
 16 32  1  0  0  0  0
 31 32  2  0  0  0  0
 10 33  1  0  0  0  0
 12 33  1  0  0  0  0
 11 34  1  0  0  0  0
 14 34  1  0  0  0  0
 32 34  1  0  0  0  0
 25 35  1  0  0  0  0
 28 35  1  0  0  0  0
 29 35  1  0  0  0  0
 12 36  2  0  0  0  0
 18 36  1  0  0  0  0
  9 37  2  0  0  0  0
 12 37  1  0  0  0  0
  5 38  1  0  0  0  0
 24 38  1  0  0  0  0
  1 39  1  0  0  0  0
 22 39  1  0  0  0  0
M  END
> <ID>
SCHEMBL21154056

> <InChIKey>
GHMZRTCUOPPDFN-UHFFFAOYSA-N

> <MW>
529.641

> <Series_Name>
Series_15

$$$$
SCHEMBL21154057
  Mrv1719007191911302D 0   0.00000     0.00000     0

 31 34  0  0  0  0              1 V2000 
   15.6557   -1.0401    0.0000 C   0  0  0  0  0  0  0  0  0  0  0  0
   24.5844   -1.8070    0.0000 C   0  0  0  0  0  0  0  0  0  0  0  0
   13.4690   -2.2777    0.0000 C   0  0  0  0  0  0  0  0  0  0  0  0
   17.0830   -3.5684    0.0000 Cl  0  0  0  0  0  0  0  0  0  0  0  0
   14.8661   -4.7985    0.0000 C   0  0  0  0  0  0  0  0  0  0  0  0
   18.4041   -1.0276    0.0000 C   0  0  0  0  0  0  0  0  0  0  0  0
   17.7208   -0.6075    0.0000 C   0  0  0  0  0  0  0  0  0  0  0  0
   16.9919   -1.0326    0.0000 C   0  0  0  0  0  0  0  0  0  0  0  0
   16.9919   -1.8576    0.0000 C   0  0  0  0  0  0  0  0  0  0  0  0
   22.4989   -1.3058    0.0000 C   0  0  0  0  0  0  0  0  0  0  0  0
   21.9726   -0.6833    0.0000 C   0  0  0  0  0  0  0  0  0  0  0  0
   21.2386   -1.0072    0.0000 C   0  0  0  0  0  0  0  0  0  0  0  0
   21.3044   -1.8526    0.0000 C   0  0  0  0  0  0  0  0  0  0  0  0
   19.8062   -1.0123    0.0000 C   0  0  0  0  0  0  0  0  0  0  0  0
   18.4041   -1.8576    0.0000 C   0  0  0  0  0  0  0  0  0  0  0  0
   23.3089   -1.2451    0.0000 C   0  0  0  0  0  0  0  0  0  0  0  0
   15.5645   -1.8576    0.0000 C   0  0  0  0  0  0  0  0  0  0  0  0
   14.8661   -2.2879    0.0000 C   0  0  0  0  0  0  0  0  0  0  0  0
   16.2783   -2.2879    0.0000 C   0  0  0  0  0  0  0  0  0  0  0  0
   17.7208   -2.2777    0.0000 C   0  0  0  0  0  0  0  0  0  0  0  0
   19.0875   -2.2777    0.0000 C   0  0  0  0  0  0  0  0  0  0  0  0
   14.8661   -3.1129    0.0000 C   0  0  0  0  0  0  0  0  0  0  0  0
   15.5645   -3.5330    0.0000 C   0  0  0  0  0  0  0  0  0  0  0  0
   16.2783   -3.1180    0.0000 C   0  0  0  0  0  0  0  0  0  0  0  0
   19.1026   -0.6302    0.0000 N   0  0  0  0  0  0  0  0  0  0  0  0
   20.5148   -0.6302    0.0000 N   0  0  0  0  0  0  0  0  0  0  0  0
   22.2990   -2.0576    0.0000 N   0  0  0  0  0  0  0  0  0  0  0  0
   15.5721   -4.4037    0.0000 O   0  0  0  0  0  0  0  0  0  0  0  0
   14.1676   -1.8906    0.0000 O   0  0  0  0  0  0  0  0  0  0  0  0
   23.8024   -1.9209    0.0000 O   0  0  0  0  0  0  0  0  0  0  0  0
   19.8164   -1.8906    0.0000 N   0  0  0  0  0  0  0  0  0  0  0  0
  6  7  1  0  0  0  0
  7  8  2  0  0  0  0
  8  9  1  0  0  0  0
 10 11  1  0  0  0  0
 11 12  1  0  0  0  0
 12 13  1  0  0  0  0
  6 15  2  0  0  0  0
 10 16  1  0  0  0  0
  1 17  1  0  0  0  0
 17 18  1  0  0  0  0
 17 19  2  0  0  0  0
  9 19  1  0  0  0  0
 15 20  1  0  0  0  0
  9 20  2  0  0  0  0
 15 21  1  0  0  0  0
 18 22  2  0  0  0  0
 22 23  1  0  0  0  0
 19 24  1  0  0  0  0
 23 24  2  0  0  0  0
  4 24  1  0  0  0  0
  6 25  1  0  0  0  0
 14 25  2  0  0  0  0
 12 26  1  0  0  0  0
 14 26  1  0  0  0  0
 10 27  1  0  0  0  0
 13 27  1  0  0  0  0
  5 28  1  0  0  0  0
 23 28  1  0  0  0  0
  3 29  1  0  0  0  0
 18 29  1  0  0  0  0
  2 30  1  0  0  0  0
 16 30  1  0  0  0  0
 14 31  1  0  0  0  0
 21 31  2  0  0  0  0
M  END
> <ID>
SCHEMBL21154057

> <InChIKey>
OYFMJVOUMAPPIC-UHFFFAOYSA-N

> <MW>
442.94

> <Series_Name>
Series_15

$$$$
SCHEMBL21167400
  Mrv1719007231910472D 0   0.00000     0.00000     0

 32 36  0  0  0  0              1 V2000 
    0.2526   -3.3004    0.0000 C   0  0  0  0  0  0  0  0  0  0  0  0
    0.2596   -2.5035    0.0000 C   0  0  0  0  0  0  0  0  0  0  0  0
    0.9865   -2.1106    0.0000 C   0  0  0  0  0  0  0  0  0  0  0  0
    0.9796   -1.2859    0.0000 C   0  0  0  0  0  0  0  0  0  0  0  0
    0.2471   -0.9112    0.0000 N   0  0  0  0  0  0  0  0  0  0  0  0
    1.7368   -2.4983    0.0000 C   0  0  0  0  0  0  0  0  0  0  0  0
    2.4402   -1.8842    0.0000 N   0  0  0  0  0  0  0  0  0  0  0  0
    1.7298   -3.3205    0.0000 N   0  0  0  0  0  0  0  0  0  0  0  0
    0.9882   -3.7100    0.0000 C   0  0  0  0  0  0  0  0  0  0  0  0
    3.2177   -2.5036    0.0000 C   0  0  0  0  0  0  0  0  0  0  0  0
    3.2249   -3.3170    0.0000 C   0  0  0  0  0  0  0  0  0  0  0  0
    3.9228   -2.1159    0.0000 N   0  0  0  0  0  0  0  0  0  0  0  0
    3.9228   -3.7221    0.0000 N   0  0  0  0  0  0  0  0  0  0  0  0
    4.6805   -3.3092    0.0000 C   0  0  0  0  0  0  0  0  0  0  0  0
    4.6870   -2.4981    0.0000 C   0  0  0  0  0  0  0  0  0  0  0  0
    5.4981   -2.2703    0.0000 N   0  0  0  0  0  0  0  0  0  0  0  0
    5.4981   -3.5676    0.0000 N   0  0  0  0  0  0  0  0  0  0  0  0
    6.0078   -2.9189    0.0000 N   0  0  0  0  0  0  0  0  0  0  0  0
    5.7733   -1.5000    0.0000 C   0  0  0  0  0  0  0  0  0  0  0  0
    6.6107   -1.4921    0.0000 C   0  0  0  0  0  0  0  0  0  0  0  0
    7.0447   -0.7919    0.0000 C   0  0  0  0  0  0  0  0  0  0  0  0
    7.8933   -0.7885    0.0000 C   0  0  0  0  0  0  0  0  0  0  0  0
    8.3132   -0.1130    0.0000 C   0  0  0  0  0  0  0  0  0  0  0  0
    9.1874   -0.1120    0.0000 C   0  0  0  0  0  0  0  0  0  0  0  0
    9.5964   -0.7910    0.0000 C   0  0  0  0  0  0  0  0  0  0  0  0
    9.1738   -1.5135    0.0000 N   0  0  0  0  0  0  0  0  0  0  0  0
    8.3225   -1.4898    0.0000 C   0  0  0  0  0  0  0  0  0  0  0  0
    7.8745   -2.1988    0.0000 C   0  0  0  0  0  0  0  0  0  0  0  0
    7.0598   -2.1988    0.0000 C   0  0  0  0  0  0  0  0  0  0  0  0
    0.2533   -0.0850    0.0000 C   0  0  0  0  0  0  0  0  0  0  0  0
    5.5838   -3.1819    0.0000 C   0  0  0  0  0  0  0  0  0  0  0  0
    1.7143   -0.8958    0.0000 O   0  0  0  0  0  0  0  0  0  0  0  0
  1  2  2  0  0  0  0
  1  9  1  0  0  0  0
  2  3  1  0  0  0  0
  3  4  1  0  0  0  0
  3  6  2  0  0  0  0
  4 32  2  0  0  0  0
  5  4  1  0  0  0  0
  6  7  1  0  0  0  0
  7 10  1  0  0  0  0
  8  6  1  0  0  0  0
  9  8  2  0  0  0  0
 10 11  2  0  0  0  0
 10 12  1  0  0  0  0
 11 13  1  0  0  0  0
 12 15  2  0  0  0  0
 13 14  2  0  0  0  0
 14 15  1  0  0  0  0
 14 17  1  0  0  0  0
 15 16  1  0  0  0  0
 16 18  1  0  0  0  0
 18 17  1  0  0  0  0
 19 20  1  0  0  0  0
 19 16  1  0  0  0  0
 20 29  2  0  0  0  0
 21 20  1  0  0  0  0
 21 22  2  0  0  0  0
 22 23  1  0  0  0  0
 23 24  2  0  0  0  0
 25 24  1  0  0  0  0
 26 25  2  0  0  0  0
 27 26  1  0  0  0  0
 27 22  1  0  0  0  0
 28 27  2  0  0  0  0
 29 28  1  0  0  0  0
 30  5  1  0  0  0  0
 31 18  1  0  0  0  0
M  END
> <ID>
SCHEMBL21167400

> <InChIKey>
MPVDDIDUUMRTMP-UHFFFAOYSA-N

> <MW>
427.472

> <Series_Name>
Series_11

$$$$
SCHEMBL21167401
  Mrv1719007231910472D 0   0.00000     0.00000     0

 30 33  0  0  0  0              1 V2000 
    0.1699   -0.0155    0.0000 C   0  0  0  0  0  0  0  0  0  0  0  0
    1.6445   -0.8338    0.0000 O   0  0  0  0  0  0  0  0  0  0  0  0
    5.4276   -3.4974    0.0000 N   0  0  0  0  0  0  0  0  0  0  0  0
    9.4963   -0.6794    0.0000 C   0  0  0  0  0  0  0  0  0  0  0  0
    9.0948   -0.0309    0.0000 C   0  0  0  0  0  0  0  0  0  0  0  0
    8.2301   -0.0309    0.0000 C   0  0  0  0  0  0  0  0  0  0  0  0
    7.8029   -0.7103    0.0000 C   0  0  0  0  0  0  0  0  0  0  0  0
    6.9639   -0.7103    0.0000 C   0  0  0  0  0  0  0  0  0  0  0  0
    6.5213   -1.4052    0.0000 C   0  0  0  0  0  0  0  0  0  0  0  0
    8.2404   -1.4052    0.0000 C   0  0  0  0  0  0  0  0  0  0  0  0
    0.9059   -1.2816    0.0000 C   0  0  0  0  0  0  0  0  0  0  0  0
    0.8956   -2.0125    0.0000 C   0  0  0  0  0  0  0  0  0  0  0  0
    5.6978   -1.4052    0.0000 C   0  0  0  0  0  0  0  0  0  0  0  0
    7.7823   -2.1154    0.0000 C   0  0  0  0  0  0  0  0  0  0  0  0
    6.9794   -2.1154    0.0000 C   0  0  0  0  0  0  0  0  0  0  0  0
    1.6522   -2.4191    0.0000 C   0  0  0  0  0  0  0  0  0  0  0  0
    0.1699   -2.4243    0.0000 C   0  0  0  0  0  0  0  0  0  0  0  0
    0.2162   -3.2581    0.0000 C   0  0  0  0  0  0  0  0  0  0  0  0
    0.8802   -3.6132    0.0000 C   0  0  0  0  0  0  0  0  0  0  0  0
    3.1346   -2.4191    0.0000 C   0  0  0  0  0  0  0  0  0  0  0  0
    4.6015   -2.4191    0.0000 C   0  0  0  0  0  0  0  0  0  0  0  0
    3.1346   -3.2272    0.0000 C   0  0  0  0  0  0  0  0  0  0  0  0
    4.6015   -3.2169    0.0000 C   0  0  0  0  0  0  0  0  0  0  0  0
    5.4276   -2.2003    0.0000 N   0  0  0  0  0  0  0  0  0  0  0  0
    2.3579   -2.0135    0.0000 N   0  0  0  0  0  0  0  0  0  0  0  0
    9.1025   -1.4438    0.0000 N   0  0  0  0  0  0  0  0  0  0  0  0
    3.8603   -3.6518    0.0000 N   0  0  0  0  0  0  0  0  0  0  0  0
    3.8603   -2.0459    0.0000 N   0  0  0  0  0  0  0  0  0  0  0  0
    1.6600   -3.2581    0.0000 N   0  0  0  0  0  0  0  0  0  0  0  0
    0.1776   -0.8416    0.0000 N   0  0  0  0  0  0  0  0  0  0  0  0
  4  5  1  0  0  0  0
  5  6  2  0  0  0  0
  6  7  1  0  0  0  0
  7  8  2  0  0  0  0
  8  9  1  0  0  0  0
  7 10  1  0  0  0  0
  2 11  2  0  0  0  0
 11 12  1  0  0  0  0
  9 13  1  0  0  0  0
 10 14  2  0  0  0  0
 14 15  1  0  0  0  0
  9 15  2  0  0  0  0
 12 16  2  0  0  0  0
 12 17  1  0  0  0  0
 17 18  2  0  0  0  0
 18 19  1  0  0  0  0
 20 22  2  0  0  0  0
 21 23  1  0  0  0  0
  3 23  1  0  0  0  0
 13 24  1  0  0  0  0
 21 24  1  0  0  0  0
 16 25  1  0  0  0  0
 20 25  1  0  0  0  0
  4 26  2  0  0  0  0
 10 26  1  0  0  0  0
 22 27  1  0  0  0  0
 23 27  2  0  0  0  0
 20 28  1  0  0  0  0
 21 28  2  0  0  0  0
 16 29  1  0  0  0  0
 19 29  2  0  0  0  0
  1 30  1  0  0  0  0
 11 30  1  0  0  0  0
M  END
> <ID>
SCHEMBL21167401

> <InChIKey>
GZLLVGPFOYIZML-UHFFFAOYSA-N

> <MW>
400.446

> <Series_Name>
Series_11

$$$$
SCHEMBL21167430
  Mrv1719007231910482D 0   0.00000     0.00000     0

 34 39  0  0  1  0              1 V2000 
    3.0184   -4.2290    0.0000 C   0  0  0  0  0  0  0  0  0  0  0  0
    3.0223   -3.3758    0.0000 C   0  0  0  0  0  0  0  0  0  0  0  0
    2.3090   -2.6968    0.0000 N   0  0  0  0  0  0  0  0  0  0  0  0
    3.7170   -2.9436    0.0000 C   0  0  0  0  0  0  0  0  0  0  0  0
    4.3993   -3.3677    0.0000 C   0  0  0  0  0  0  0  0  0  0  0  0
    5.0937   -2.6968    0.0000 N   0  0  0  0  0  0  0  0  0  0  0  0
    4.3887   -4.2302    0.0000 N   0  0  0  0  0  0  0  0  0  0  0  0
    3.7167   -4.6683    0.0000 C   0  0  0  0  0  0  0  0  0  0  0  0
    0.4392   -3.8768    0.0000 C   0  0  0  0  0  0  0  0  0  0  0  0
    0.8585   -3.1374    0.0000 C   0  0  0  0  0  0  0  0  0  0  0  0
    0.4318   -2.3266    0.0000 O   0  0  0  0  0  0  0  0  0  0  0  0
    1.6336   -3.3729    0.0000 C   0  0  1  0  0  0  0  0  0  0  0  0
    1.6425   -4.2264    0.0000 C   0  0  0  0  0  0  0  0  0  0  0  0
    0.9528   -4.5208    0.0000 C   0  0  0  0  0  0  0  0  0  0  0  0
    5.8080   -3.3805    0.0000 C   0  0  0  0  0  0  0  0  0  0  0  0
    6.4510   -2.9435    0.0000 N   0  0  0  0  0  0  0  0  0  0  0  0
    5.8295   -4.2510    0.0000 C   0  0  0  0  0  0  0  0  0  0  0  0
    6.4510   -4.6531    0.0000 N   0  0  0  0  0  0  0  0  0  0  0  0
    7.1719   -4.2351    0.0000 C   0  0  0  0  0  0  0  0  0  0  0  0
    7.1815   -3.3765    0.0000 C   0  0  0  0  0  0  0  0  0  0  0  0
    7.9139   -3.1197    0.0000 N   0  0  0  0  0  0  0  0  0  0  0  0
    7.9139   -4.4945    0.0000 N   0  0  0  0  0  0  0  0  0  0  0  0
    8.3897   -3.8071    0.0000 N   0  0  0  0  0  0  0  0  0  0  0  0
   10.2646   -0.2925    0.0000 C   0  0  0  0  0  0  0  0  0  0  0  0
   11.0342   -0.1164    0.0000 C   0  0  0  0  0  0  0  0  0  0  0  0
   11.5567   -0.7315    0.0000 C   0  0  0  0  0  0  0  0  0  0  0  0
   11.2980   -1.5863    0.0000 N   0  0  0  0  0  0  0  0  0  0  0  0
   10.0063   -1.1006    0.0000 C   0  0  0  0  0  0  0  0  0  0  0  0
   10.5254   -1.7513    0.0000 C   0  0  0  0  0  0  0  0  0  0  0  0
   10.3197   -2.5380    0.0000 C   0  0  0  0  0  0  0  0  0  0  0  0
    8.9909   -2.1021    0.0000 C   0  0  0  0  0  0  0  0  0  0  0  0
    9.4799   -2.7383    0.0000 C   0  0  0  0  0  0  0  0  0  0  0  0
    8.1920   -2.2918    0.0000 C   0  0  0  0  0  0  0  0  0  0  0  0
    9.2334   -1.2891    0.0000 C   0  0  0  0  0  0  0  0  0  0  0  0
  1  2  2  0  0  0  0
  1  8  1  0  0  0  0
  2  3  1  0  0  0  0
  2  4  1  0  0  0  0
  4  5  2  0  0  0  0
  5  6  1  0  0  0  0
  6 15  1  0  0  0  0
  7  5  1  0  0  0  0
  8  7  2  0  0  0  0
  9 10  1  0  0  0  0
 10 11  1  0  0  0  0
 12 10  1  0  0  0  0
 12 13  1  0  0  0  0
 12  3  1  6  0  0  0
 14  9  1  0  0  0  0
 14 13  1  0  0  0  0
 15 16  1  0  0  0  0
 15 17  2  0  0  0  0
 16 20  2  0  0  0  0
 17 18  1  0  0  0  0
 18 19  2  0  0  0  0
 19 20  1  0  0  0  0
 19 22  1  0  0  0  0
 20 21  1  0  0  0  0
 21 33  1  0  0  0  0
 21 23  1  0  0  0  0
 23 22  1  0  0  0  0
 24 25  2  0  0  0  0
 26 25  1  0  0  0  0
 27 26  2  0  0  0  0
 28 24  1  0  0  0  0
 28 29  1  0  0  0  0
 29 27  1  0  0  0  0
 30 29  2  0  0  0  0
 31 32  2  0  0  0  0
 31 34  1  0  0  0  0
 32 30  1  0  0  0  0
 33 31  1  0  0  0  0
 34 28  2  0  0  0  0
M  END
> <ID>
SCHEMBL21167430

> <InChIKey>
MMCKRUKPRBLTDZ-FIWHBWSRSA-N

> <MW>
455.526

> <Series_Name>
Series_11

$$$$
SCHEMBL21167431
  Mrv1719007231910482D 0   0.00000     0.00000     0

 27 30  0  0  0  0              1 V2000 
    2.2545   -2.8936    0.0000 N   0  0  0  0  0  0  0  0  0  0  0  0
    7.8908   -4.4558    0.0000 N   0  0  0  0  0  0  0  0  0  0  0  0
   11.5389   -0.6391    0.0000 C   0  0  0  0  0  0  0  0  0  0  0  0
   11.0062   -0.0177    0.0000 C   0  0  0  0  0  0  0  0  0  0  0  0
   10.2607   -0.1775    0.0000 C   0  0  0  0  0  0  0  0  0  0  0  0
    9.9825   -1.0000    0.0000 C   0  0  0  0  0  0  0  0  0  0  0  0
   10.5033   -1.6569    0.0000 C   0  0  0  0  0  0  0  0  0  0  0  0
    9.1777   -1.2248    0.0000 C   0  0  0  0  0  0  0  0  0  0  0  0
    8.9529   -2.0237    0.0000 C   0  0  0  0  0  0  0  0  0  0  0  0
   10.1541   -2.5208    0.0000 C   0  0  0  0  0  0  0  0  0  0  0  0
    9.4619   -2.6627    0.0000 C   0  0  0  0  0  0  0  0  0  0  0  0
    8.1659   -2.2012    0.0000 C   0  0  0  0  0  0  0  0  0  0  0  0
    4.3315   -3.2959    0.0000 C   0  0  0  0  0  0  0  0  0  0  0  0
    3.6214   -2.8759    0.0000 C   0  0  0  0  0  0  0  0  0  0  0  0
    2.9410   -3.3078    0.0000 C   0  0  0  0  0  0  0  0  0  0  0  0
    2.9824   -4.1895    0.0000 C   0  0  0  0  0  0  0  0  0  0  0  0
    3.6391   -4.5977    0.0000 C   0  0  0  0  0  0  0  0  0  0  0  0
    5.7398   -3.2959    0.0000 C   0  0  0  0  0  0  0  0  0  0  0  0
    5.7517   -4.1717    0.0000 C   0  0  0  0  0  0  0  0  0  0  0  0
    7.1304   -3.3078    0.0000 C   0  0  0  0  0  0  0  0  0  0  0  0
    7.1363   -4.1599    0.0000 C   0  0  0  0  0  0  0  0  0  0  0  0
    4.3493   -4.1895    0.0000 N   0  0  0  0  0  0  0  0  0  0  0  0
    7.8908   -3.0711    0.0000 N   0  0  0  0  0  0  0  0  0  0  0  0
    6.4263   -2.8936    0.0000 N   0  0  0  0  0  0  0  0  0  0  0  0
    5.0505   -2.8936    0.0000 N   0  0  0  0  0  0  0  0  0  0  0  0
   11.3080   -1.5266    0.0000 N   0  0  0  0  0  0  0  0  0  0  0  0
    6.4263   -4.6155    0.0000 N   0  0  0  0  0  0  0  0  0  0  0  0
  3  4  1  0  0  0  0
  4  5  2  0  0  0  0
  5  6  1  0  0  0  0
  6  7  1  0  0  0  0
  6  8  2  0  0  0  0
  8  9  1  0  0  0  0
  7 10  2  0  0  0  0
 10 11  1  0  0  0  0
  9 11  2  0  0  0  0
  9 12  1  0  0  0  0
 13 14  2  0  0  0  0
 14 15  1  0  0  0  0
  1 15  1  0  0  0  0
 15 16  2  0  0  0  0
 16 17  1  0  0  0  0
 18 19  2  0  0  0  0
 20 21  1  0  0  0  0
  2 21  1  0  0  0  0
 13 22  1  0  0  0  0
 17 22  2  0  0  0  0
 12 23  1  0  0  0  0
 20 23  1  0  0  0  0
 18 24  1  0  0  0  0
 20 24  2  0  0  0  0
 13 25  1  0  0  0  0
 18 25  1  0  0  0  0
  3 26  2  0  0  0  0
  7 26  1  0  0  0  0
 19 27  1  0  0  0  0
 21 27  2  0  0  0  0
M  END
> <ID>
SCHEMBL21167431

> <InChIKey>
AHKOYCUQSYYJRB-UHFFFAOYSA-N

> <MW>
358.409

> <Series_Name>
Series_11

$$$$
SCHEMBL21167438
  Mrv1719007231910492D 0   0.00000     0.00000     0

 30 33  0  0  0  0              1 V2000 
    0.1027   -3.2333    0.0000 C   0  0  0  0  0  0  0  0  0  0  0  0
    0.8004   -3.6701    0.0000 C   0  0  0  0  0  0  0  0  0  0  0  0
    0.1093   -2.3731    0.0000 C   0  0  0  0  0  0  0  0  0  0  0  0
    0.7757   -1.9639    0.0000 N   0  0  0  0  0  0  0  0  0  0  0  0
    1.5028   -3.2374    0.0000 C   0  0  0  0  0  0  0  0  0  0  0  0
    1.5120   -2.3783    0.0000 C   0  0  0  0  0  0  0  0  0  0  0  0
    2.2114   -1.7246    0.0000 N   0  0  0  0  0  0  0  0  0  0  0  0
    0.9081   -4.2099    0.0000 C   0  0  0  0  0  0  0  0  0  0  0  0
    1.2713   -4.6235    0.0000 F   0  0  0  0  0  0  0  0  0  0  0  0
    1.4479   -4.1022    0.0000 F   0  0  0  0  0  0  0  0  0  0  0  0
    0.4946   -4.5731    0.0000 F   0  0  0  0  0  0  0  0  0  0  0  0
    2.7949   -2.3223    0.0000 C   0  0  0  0  0  0  0  0  0  0  0  0
    2.8025   -3.0660    0.0000 C   0  0  0  0  0  0  0  0  0  0  0  0
    3.3997   -1.9804    0.0000 N   0  0  0  0  0  0  0  0  0  0  0  0
    3.3997   -3.4327    0.0000 N   0  0  0  0  0  0  0  0  0  0  0  0
    4.0130   -3.0715    0.0000 C   0  0  0  0  0  0  0  0  0  0  0  0
    4.0165   -2.3221    0.0000 C   0  0  0  0  0  0  0  0  0  0  0  0
    4.7035   -2.0960    0.0000 N   0  0  0  0  0  0  0  0  0  0  0  0
    4.7035   -3.3007    0.0000 N   0  0  0  0  0  0  0  0  0  0  0  0
    4.9452   -1.2846    0.0000 C   0  0  0  0  0  0  0  0  0  0  0  0
    5.7572   -1.0929    0.0000 C   0  0  0  0  0  0  0  0  0  0  0  0
    6.0320   -0.2572    0.0000 C   0  0  0  0  0  0  0  0  0  0  0  0
    6.8055   -0.0932    0.0000 C   0  0  0  0  0  0  0  0  0  0  0  0
    7.3306   -0.7389    0.0000 C   0  0  0  0  0  0  0  0  0  0  0  0
    8.1197   -0.5611    0.0000 N   0  0  0  0  0  0  0  0  0  0  0  0
    7.0773   -1.5435    0.0000 C   0  0  0  0  0  0  0  0  0  0  0  0
    8.6767   -1.1845    0.0000 C   0  0  0  0  0  0  0  0  0  0  0  0
    8.4301   -2.0063    0.0000 C   0  0  0  0  0  0  0  0  0  0  0  0
    7.6408   -2.1950    0.0000 C   0  0  0  0  0  0  0  0  0  0  0  0
    6.2677   -1.7388    0.0000 C   0  0  0  0  0  0  0  0  0  0  0  0
  1  2  1  0  0  0  0
  1  3  2  0  0  0  0
  2  5  2  0  0  0  0
  3  4  1  0  0  0  0
  4  6  2  0  0  0  0
  5  6  1  0  0  0  0
  6  7  1  0  0  0  0
  7 12  1  0  0  0  0
  8  9  1  0  0  0  0
  8 10  1  0  0  0  0
  8 11  1  0  0  0  0
  8  2  1  0  0  0  0
 12 13  2  0  0  0  0
 12 14  1  0  0  0  0
 13 15  1  0  0  0  0
 14 17  2  0  0  0  0
 15 16  2  0  0  0  0
 16 17  1  0  0  0  0
 16 19  1  0  0  0  0
 17 18  1  0  0  0  0
 18 20  1  0  0  0  0
 20 21  1  0  0  0  0
 21 30  2  0  0  0  0
 22 23  2  0  0  0  0
 22 21  1  0  0  0  0
 24 23  1  0  0  0  0
 24 25  1  0  0  0  0
 25 27  2  0  0  0  0
 26 24  2  0  0  0  0
 26 29  1  0  0  0  0
 26 30  1  0  0  0  0
 28 27  1  0  0  0  0
 29 28  2  0  0  0  0
M  END
> <ID>
SCHEMBL21167438

> <InChIKey>
BPDMPXULTWZVID-UHFFFAOYSA-N

> <MW>
411.392

> <Series_Name>
Series_11

$$$$
SCHEMBL21167445
  Mrv1719007231910492D 0   0.00000     0.00000     0

 31 34  0  0  0  0              1 V2000 
    1.0936   -5.3921    0.0000 C   0  0  0  0  0  0  0  0  0  0  0  0
    1.0211   -4.4977    0.0000 C   0  0  0  0  0  0  0  0  0  0  0  0
    0.3010   -4.0951    0.0000 C   0  0  0  0  0  0  0  0  0  0  0  0
    0.2938   -3.2620    0.0000 C   0  0  0  0  0  0  0  0  0  0  0  0
    0.9895   -2.8449    0.0000 N   0  0  0  0  0  0  0  0  0  0  0  0
    1.7136   -4.1044    0.0000 C   0  0  0  0  0  0  0  0  0  0  0  0
    1.7576   -3.2496    0.0000 C   0  0  0  0  0  0  0  0  0  0  0  0
    2.4326   -2.6078    0.0000 N   0  0  0  0  0  0  0  0  0  0  0  0
    1.7111   -5.9990    0.0000 N   0  0  0  0  0  0  0  0  0  0  0  0
    0.2680   -5.7516    0.0000 O   0  0  0  0  0  0  0  0  0  0  0  0
    3.1853   -3.2742    0.0000 C   0  0  0  0  0  0  0  0  0  0  0  0
    3.8550   -2.8449    0.0000 N   0  0  0  0  0  0  0  0  0  0  0  0
    3.1928   -4.0983    0.0000 C   0  0  0  0  0  0  0  0  0  0  0  0
    3.8550   -4.5147    0.0000 N   0  0  0  0  0  0  0  0  0  0  0  0
    4.6099   -3.2846    0.0000 C   0  0  0  0  0  0  0  0  0  0  0  0
    5.3806   -3.0098    0.0000 N   0  0  0  0  0  0  0  0  0  0  0  0
    4.6146   -4.0866    0.0000 C   0  0  0  0  0  0  0  0  0  0  0  0
    5.3806   -4.3498    0.0000 N   0  0  0  0  0  0  0  0  0  0  0  0
    6.4838   -2.0615    0.0000 C   0  0  0  0  0  0  0  0  0  0  0  0
    6.7151   -1.2537    0.0000 C   0  0  0  0  0  0  0  0  0  0  0  0
    7.5228   -1.0981    0.0000 C   0  0  0  0  0  0  0  0  0  0  0  0
    7.7757   -0.3065    0.0000 C   0  0  0  0  0  0  0  0  0  0  0  0
    8.6172   -0.1204    0.0000 C   0  0  0  0  0  0  0  0  0  0  0  0
    9.1487   -0.7146    0.0000 C   0  0  0  0  0  0  0  0  0  0  0  0
    8.8851   -1.5255    0.0000 N   0  0  0  0  0  0  0  0  0  0  0  0
    8.0832   -1.6950    0.0000 C   0  0  0  0  0  0  0  0  0  0  0  0
    7.8415   -2.4790    0.0000 C   0  0  0  0  0  0  0  0  0  0  0  0
    6.9994   -2.6555    0.0000 C   0  0  0  0  0  0  0  0  0  0  0  0
    5.6700   -2.2273    0.0000 C   0  0  0  0  0  0  0  0  0  0  0  0
    2.4532   -5.3514    0.0000 C   0  0  0  0  0  0  0  0  0  0  0  0
    5.8547   -3.6901    0.0000 N   0  0  0  0  0  0  0  0  0  0  0  0
  1  2  1  0  0  0  0
  1  9  1  0  0  0  0
  2  6  2  0  0  0  0
  3  2  1  0  0  0  0
  4  3  2  0  0  0  0
  4  5  1  0  0  0  0
  5  7  2  0  0  0  0
  7  6  1  0  0  0  0
  7  8  1  0  0  0  0
  8 11  1  0  0  0  0
  9 30  1  0  0  0  0
 10  1  2  0  0  0  0
 11 12  1  0  0  0  0
 11 13  2  0  0  0  0
 12 15  2  0  0  0  0
 13 14  1  0  0  0  0
 14 17  2  0  0  0  0
 15 16  1  0  0  0  0
 17 15  1  0  0  0  0
 17 18  1  0  0  0  0
 18 31  2  0  0  0  0
 19 20  1  0  0  0  0
 19 28  2  0  0  0  0
 20 21  2  0  0  0  0
 21 22  1  0  0  0  0
 21 26  1  0  0  0  0
 22 23  2  0  0  0  0
 24 23  1  0  0  0  0
 25 24  2  0  0  0  0
 26 25  1  0  0  0  0
 27 26  2  0  0  0  0
 28 27  1  0  0  0  0
 29 19  1  0  0  0  0
 29 16  1  0  0  0  0
M  END
> <ID>
SCHEMBL21167445

> <InChIKey>
OXGAGKGUAIFVAP-UHFFFAOYSA-N

> <MW>
413.445

> <Series_Name>
Series_11

$$$$
SCHEMBL21167447
  Mrv1719007231910492D 0   0.00000     0.00000     0

 32 36  0  0  0  0              1 V2000 
    1.0454   -6.0745    0.0000 C   0  0  0  0  0  0  0  0  0  0  0  0
    1.6894   -5.6540    0.0000 C   0  0  0  0  0  0  0  0  0  0  0  0
    1.6921   -4.8129    0.0000 N   0  0  0  0  0  0  0  0  0  0  0  0
    0.2857   -5.6701    0.0000 O   0  0  0  0  0  0  0  0  0  0  0  0
    0.3283   -4.8329    0.0000 C   0  0  0  0  0  0  0  0  0  0  0  0
    1.0276   -4.3947    0.0000 C   0  0  0  0  0  0  0  0  0  0  0  0
    2.3777   -4.3664    0.0000 C   0  0  0  0  0  0  0  0  0  0  0  0
    2.3790   -3.5455    0.0000 C   0  0  0  0  0  0  0  0  0  0  0  0
    3.0767   -3.0988    0.0000 N   0  0  0  0  0  0  0  0  0  0  0  0
    3.8308   -4.3345    0.0000 C   0  0  0  0  0  0  0  0  0  0  0  0
    3.8348   -3.4931    0.0000 C   0  0  0  0  0  0  0  0  0  0  0  0
    4.4832   -2.8130    0.0000 N   0  0  0  0  0  0  0  0  0  0  0  0
    3.1448   -4.7597    0.0000 C   0  0  0  0  0  0  0  0  0  0  0  0
    5.2213   -3.4662    0.0000 C   0  0  0  0  0  0  0  0  0  0  0  0
    5.9118   -3.0328    0.0000 N   0  0  0  0  0  0  0  0  0  0  0  0
    5.2578   -4.3059    0.0000 C   0  0  0  0  0  0  0  0  0  0  0  0
    5.9557   -4.7031    0.0000 N   0  0  0  0  0  0  0  0  0  0  0  0
    6.6766   -4.2524    0.0000 C   0  0  0  0  0  0  0  0  0  0  0  0
    6.6673   -3.4320    0.0000 C   0  0  0  0  0  0  0  0  0  0  0  0
    7.4062   -3.1426    0.0000 N   0  0  0  0  0  0  0  0  0  0  0  0
    7.4282   -4.5053    0.0000 N   0  0  0  0  0  0  0  0  0  0  0  0
   10.4923   -0.1421    0.0000 C   0  0  0  0  0  0  0  0  0  0  0  0
   11.0543   -0.7460    0.0000 C   0  0  0  0  0  0  0  0  0  0  0  0
   10.7906   -1.5823    0.0000 N   0  0  0  0  0  0  0  0  0  0  0  0
    9.7341   -0.3283    0.0000 C   0  0  0  0  0  0  0  0  0  0  0  0
    9.4821   -1.1514    0.0000 C   0  0  0  0  0  0  0  0  0  0  0  0
   10.0275   -1.7691    0.0000 C   0  0  0  0  0  0  0  0  0  0  0  0
    9.7971   -2.5613    0.0000 C   0  0  0  0  0  0  0  0  0  0  0  0
    9.0176   -2.7393    0.0000 C   0  0  0  0  0  0  0  0  0  0  0  0
    7.6535   -2.3499    0.0000 C   0  0  0  0  0  0  0  0  0  0  0  0
    8.4571   -2.1233    0.0000 C   0  0  0  0  0  0  0  0  0  0  0  0
    8.6921   -1.3449    0.0000 C   0  0  0  0  0  0  0  0  0  0  0  0
  1  2  1  0  0  0  0
  1  4  1  0  0  0  0
  2  3  1  0  0  0  0
  3  7  1  0  0  0  0
  5  6  1  0  0  0  0
  5  4  1  0  0  0  0
  6  3  1  0  0  0  0
  7 13  2  0  0  0  0
  8  7  1  0  0  0  0
  8  9  2  0  0  0  0
 10 11  2  0  0  0  0
 11  9  1  0  0  0  0
 11 12  1  0  0  0  0
 12 14  1  0  0  0  0
 13 10  1  0  0  0  0
 14 15  1  0  0  0  0
 14 16  2  0  0  0  0
 15 19  2  0  0  0  0
 16 17  1  0  0  0  0
 17 18  2  0  0  0  0
 18 19  1  0  0  0  0
 18 21  1  0  0  0  0
 19 20  1  0  0  0  0
 22 23  1  0  0  0  0
 24 23  2  0  0  0  0
 25 22  2  0  0  0  0
 26 25  1  0  0  0  0
 26 27  1  0  0  0  0
 27 24  1  0  0  0  0
 28 27  2  0  0  0  0
 29 28  1  0  0  0  0
 30 31  1  0  0  0  0
 30 20  1  0  0  0  0
 31 29  2  0  0  0  0
 32 26  2  0  0  0  0
 32 31  1  0  0  0  0
M  END
> <ID>
SCHEMBL21167447

> <InChIKey>
MWWOXECPNSNMLY-UHFFFAOYSA-N

> <MW>
428.5

> <Series_Name>
Series_11

$$$$
SCHEMBL21167448
  Mrv1719007231910492D 0   0.00000     0.00000     0

 30 33  0  0  0  0              1 V2000 
    5.2758   -4.2493    0.0000 N   0  0  0  0  0  0  0  0  0  0  0  0
    2.3197   -5.1937    0.0000 C   0  0  0  0  0  0  0  0  0  0  0  0
    8.9914   -0.5953    0.0000 C   0  0  0  0  0  0  0  0  0  0  0  0
    8.4782   -0.0205    0.0000 C   0  0  0  0  0  0  0  0  0  0  0  0
    7.6570   -0.1643    0.0000 C   0  0  0  0  0  0  0  0  0  0  0  0
    7.3902   -0.9717    0.0000 C   0  0  0  0  0  0  0  0  0  0  0  0
    7.9376   -1.5738    0.0000 C   0  0  0  0  0  0  0  0  0  0  0  0
    6.6717   -1.1085    0.0000 C   0  0  0  0  0  0  0  0  0  0  0  0
    7.6776   -2.3608    0.0000 C   0  0  0  0  0  0  0  0  0  0  0  0
    6.8565   -2.5250    0.0000 C   0  0  0  0  0  0  0  0  0  0  0  0
    5.5426   -2.0939    0.0000 C   0  0  0  0  0  0  0  0  0  0  0  0
    0.1848   -3.1408    0.0000 C   0  0  0  0  0  0  0  0  0  0  0  0
    0.1848   -3.9620    0.0000 C   0  0  0  0  0  0  0  0  0  0  0  0
    0.8964   -4.3794    0.0000 C   0  0  0  0  0  0  0  0  0  0  0  0
    1.5944   -3.1477    0.0000 C   0  0  0  0  0  0  0  0  0  0  0  0
    1.6012   -3.9620    0.0000 C   0  0  0  0  0  0  0  0  0  0  0  0
    3.0450   -3.1340    0.0000 C   0  0  0  0  0  0  0  0  0  0  0  0
    3.0587   -3.9620    0.0000 C   0  0  0  0  0  0  0  0  0  0  0  0
    4.4752   -3.1545    0.0000 C   0  0  0  0  0  0  0  0  0  0  0  0
    4.4752   -3.9483    0.0000 C   0  0  0  0  0  0  0  0  0  0  0  0
    0.1950   -5.6453    0.0000 O   0  0  0  0  0  0  0  0  0  0  0  0
    6.3022   -1.9091    0.0000 C   0  0  0  0  0  0  0  0  0  0  0  0
    0.9204   -5.1954    0.0000 C   0  0  0  0  0  0  0  0  0  0  0  0
    5.2758   -2.9048    0.0000 N   0  0  0  0  0  0  0  0  0  0  0  0
    1.6115   -5.6453    0.0000 N   0  0  0  0  0  0  0  0  0  0  0  0
    8.7553   -1.4370    0.0000 N   0  0  0  0  0  0  0  0  0  0  0  0
    0.9032   -2.7405    0.0000 N   0  0  0  0  0  0  0  0  0  0  0  0
    2.3300   -2.7405    0.0000 N   0  0  0  0  0  0  0  0  0  0  0  0
    3.7567   -2.7405    0.0000 N   0  0  0  0  0  0  0  0  0  0  0  0
    3.7567   -4.4033    0.0000 N   0  0  0  0  0  0  0  0  0  0  0  0
  3  4  1  0  0  0  0
  4  5  2  0  0  0  0
  5  6  1  0  0  0  0
  6  7  1  0  0  0  0
  6  8  2  0  0  0  0
  7  9  2  0  0  0  0
  9 10  1  0  0  0  0
 12 13  2  0  0  0  0
 13 14  1  0  0  0  0
 15 16  1  0  0  0  0
 14 16  2  0  0  0  0
 17 18  2  0  0  0  0
 19 20  1  0  0  0  0
  1 20  1  0  0  0  0
  8 22  1  0  0  0  0
 10 22  2  0  0  0  0
 11 22  1  0  0  0  0
 14 23  1  0  0  0  0
 21 23  2  0  0  0  0
 11 24  1  0  0  0  0
 19 24  1  0  0  0  0
  2 25  1  0  0  0  0
 23 25  1  0  0  0  0
  3 26  2  0  0  0  0
  7 26  1  0  0  0  0
 12 27  1  0  0  0  0
 15 27  2  0  0  0  0
 15 28  1  0  0  0  0
 17 28  1  0  0  0  0
 17 29  1  0  0  0  0
 19 29  2  0  0  0  0
 18 30  1  0  0  0  0
 20 30  2  0  0  0  0
M  END
> <ID>
SCHEMBL21167448

> <InChIKey>
FFNJUECHOUKMFQ-UHFFFAOYSA-N

> <MW>
400.446

> <Series_Name>
Series_11

$$$$
SCHEMBL21167462
  Mrv1719007231910502D 0   0.00000     0.00000     0

 27 30  0  0  0  0              1 V2000 
    0.6995   -0.3901    0.0000 C   0  0  0  0  0  0  0  0  0  0  0  0
    5.0107   -2.9728    0.0000 N   0  0  0  0  0  0  0  0  0  0  0  0
    8.8914   -1.0626    0.0000 C   0  0  0  0  0  0  0  0  0  0  0  0
    8.7030   -0.2421    0.0000 C   0  0  0  0  0  0  0  0  0  0  0  0
    7.9363   -0.0135    0.0000 C   0  0  0  0  0  0  0  0  0  0  0  0
    7.3489   -0.6143    0.0000 C   0  0  0  0  0  0  0  0  0  0  0  0
    7.5866   -1.4304    0.0000 C   0  0  0  0  0  0  0  0  0  0  0  0
    0.6995   -1.1882    0.0000 C   0  0  0  0  0  0  0  0  0  0  0  0
    6.4970   -0.4708    0.0000 C   0  0  0  0  0  0  0  0  0  0  0  0
    6.0307   -0.9820    0.0000 C   0  0  0  0  0  0  0  0  0  0  0  0
    6.2280   -1.7891    0.0000 C   0  0  0  0  0  0  0  0  0  0  0  0
    7.0081   -2.0311    0.0000 C   0  0  0  0  0  0  0  0  0  0  0  0
    5.2595   -0.7802    0.0000 C   0  0  0  0  0  0  0  0  0  0  0  0
    1.3855   -1.6366    0.0000 C   0  0  0  0  0  0  0  0  0  0  0  0
    0.0135   -1.6276    0.0000 C   0  0  0  0  0  0  0  0  0  0  0  0
    0.0269   -2.4885    0.0000 C   0  0  0  0  0  0  0  0  0  0  0  0
    0.6860   -2.9055    0.0000 C   0  0  0  0  0  0  0  0  0  0  0  0
    2.8382   -1.8384    0.0000 C   0  0  0  0  0  0  0  0  0  0  0  0
    4.2372   -1.8384    0.0000 C   0  0  0  0  0  0  0  0  0  0  0  0
    2.8382   -2.6634    0.0000 C   0  0  0  0  0  0  0  0  0  0  0  0
    4.2372   -2.6679    0.0000 C   0  0  0  0  0  0  0  0  0  0  0  0
    8.3533   -1.6747    0.0000 N   0  0  0  0  0  0  0  0  0  0  0  0
    5.0107   -1.6074    0.0000 N   0  0  0  0  0  0  0  0  0  0  0  0
    3.5512   -1.4325    0.0000 N   0  0  0  0  0  0  0  0  0  0  0  0
    2.1807   -1.4073    0.0000 N   0  0  0  0  0  0  0  0  0  0  0  0
    3.5512   -3.1409    0.0000 N   0  0  0  0  0  0  0  0  0  0  0  0
    1.3922   -2.5154    0.0000 N   0  0  0  0  0  0  0  0  0  0  0  0
  3  4  1  0  0  0  0
  4  5  2  0  0  0  0
  5  6  1  0  0  0  0
  6  7  1  0  0  0  0
  1  8  1  0  0  0  0
  6  9  2  0  0  0  0
  9 10  1  0  0  0  0
 10 11  2  0  0  0  0
 11 12  1  0  0  0  0
  7 12  2  0  0  0  0
 10 13  1  0  0  0  0
  8 14  2  0  0  0  0
  8 15  1  0  0  0  0
 15 16  2  0  0  0  0
 16 17  1  0  0  0  0
 18 20  2  0  0  0  0
 19 21  1  0  0  0  0
  2 21  1  0  0  0  0
  3 22  2  0  0  0  0
  7 22  1  0  0  0  0
 13 23  1  0  0  0  0
 19 23  1  0  0  0  0
 18 24  1  0  0  0  0
 19 24  2  0  0  0  0
 14 25  1  0  0  0  0
 18 25  1  0  0  0  0
 20 26  1  0  0  0  0
 21 26  2  0  0  0  0
 14 27  1  0  0  0  0
 17 27  2  0  0  0  0
M  END
> <ID>
SCHEMBL21167462

> <InChIKey>
SSFNFCKARKFVFY-UHFFFAOYSA-N

> <MW>
357.421

> <Series_Name>
Series_11

$$$$
SCHEMBL21167470
  Mrv1719007231910502D 0   0.00000     0.00000     0

 28 31  0  0  0  0              1 V2000 
    0.0167   -1.4711    0.0000 C   0  0  0  0  0  0  0  0  0  0  0  0
    5.1320   -4.2126    0.0000 N   0  0  0  0  0  0  0  0  0  0  0  0
    8.8766   -0.6018    0.0000 C   0  0  0  0  0  0  0  0  0  0  0  0
    8.3417   -0.0167    0.0000 C   0  0  0  0  0  0  0  0  0  0  0  0
    7.5225   -0.1839    0.0000 C   0  0  0  0  0  0  0  0  0  0  0  0
    7.2718   -0.9418    0.0000 C   0  0  0  0  0  0  0  0  0  0  0  0
    7.8178   -1.5602    0.0000 C   0  0  0  0  0  0  0  0  0  0  0  0
    6.4527   -1.1368    0.0000 C   0  0  0  0  0  0  0  0  0  0  0  0
    6.1740   -1.8945    0.0000 C   0  0  0  0  0  0  0  0  0  0  0  0
    7.5727   -2.3571    0.0000 C   0  0  0  0  0  0  0  0  0  0  0  0
    6.7368   -2.5243    0.0000 C   0  0  0  0  0  0  0  0  0  0  0  0
    5.3996   -2.0728    0.0000 C   0  0  0  0  0  0  0  0  0  0  0  0
    0.7355   -2.6970    0.0000 C   0  0  0  0  0  0  0  0  0  0  0  0
    0.0167   -3.1093    0.0000 C   0  0  0  0  0  0  0  0  0  0  0  0
    0.0167   -3.9118    0.0000 C   0  0  0  0  0  0  0  0  0  0  0  0
    0.7188   -4.3296    0.0000 C   0  0  0  0  0  0  0  0  0  0  0  0
    1.4488   -3.0982    0.0000 C   0  0  0  0  0  0  0  0  0  0  0  0
    2.8920   -3.1205    0.0000 C   0  0  0  0  0  0  0  0  0  0  0  0
    4.3130   -3.1037    0.0000 C   0  0  0  0  0  0  0  0  0  0  0  0
    4.3130   -3.9341    0.0000 C   0  0  0  0  0  0  0  0  0  0  0  0
    2.8920   -3.9118    0.0000 C   0  0  0  0  0  0  0  0  0  0  0  0
    1.4460   -3.9452    0.0000 N   0  0  0  0  0  0  0  0  0  0  0  0
    5.1320   -2.8920    0.0000 N   0  0  0  0  0  0  0  0  0  0  0  0
    3.6107   -2.7416    0.0000 N   0  0  0  0  0  0  0  0  0  0  0  0
    2.1732   -2.7416    0.0000 N   0  0  0  0  0  0  0  0  0  0  0  0
    8.6342   -1.4377    0.0000 N   0  0  0  0  0  0  0  0  0  0  0  0
    3.6107   -4.3464    0.0000 N   0  0  0  0  0  0  0  0  0  0  0  0
    0.7438   -1.8973    0.0000 O   0  0  0  0  0  0  0  0  0  0  0  0
  3  4  1  0  0  0  0
  4  5  2  0  0  0  0
  5  6  1  0  0  0  0
  6  7  1  0  0  0  0
  6  8  2  0  0  0  0
  8  9  1  0  0  0  0
  7 10  2  0  0  0  0
 10 11  1  0  0  0  0
  9 11  2  0  0  0  0
  9 12  1  0  0  0  0
 13 14  1  0  0  0  0
 14 15  2  0  0  0  0
 15 16  1  0  0  0  0
 13 17  2  0  0  0  0
 19 20  1  0  0  0  0
  2 20  1  0  0  0  0
 18 21  2  0  0  0  0
 16 22  2  0  0  0  0
 17 22  1  0  0  0  0
 12 23  1  0  0  0  0
 19 23  1  0  0  0  0
 18 24  1  0  0  0  0
 19 24  2  0  0  0  0
 17 25  1  0  0  0  0
 18 25  1  0  0  0  0
  3 26  2  0  0  0  0
  7 26  1  0  0  0  0
 20 27  2  0  0  0  0
 21 27  1  0  0  0  0
  1 28  1  0  0  0  0
 13 28  1  0  0  0  0
M  END
> <ID>
SCHEMBL21167470

> <InChIKey>
BQYKCPNNXBSFRZ-UHFFFAOYSA-N

> <MW>
373.42

> <Series_Name>
Series_11

$$$$
SCHEMBL21167478
  Mrv1719007231910502D 0   0.00000     0.00000     0

 29 32  0  0  0  0              1 V2000 
    0.2001   -2.4084    0.0000 C   0  0  0  0  0  0  0  0  0  0  0  0
    0.9264   -2.8290    0.0000 C   0  0  0  0  0  0  0  0  0  0  0  0
    1.5933   -3.2154    0.0000 C   0  0  0  0  0  0  0  0  0  0  0  0
    2.3073   -2.8294    0.0000 N   0  0  0  0  0  0  0  0  0  0  0  0
    1.5936   -4.0416    0.0000 C   0  0  0  0  0  0  0  0  0  0  0  0
    3.0452   -3.2198    0.0000 C   0  0  0  0  0  0  0  0  0  0  0  0
    3.7388   -2.5852    0.0000 N   0  0  0  0  0  0  0  0  0  0  0  0
    3.0439   -4.0536    0.0000 C   0  0  0  0  0  0  0  0  0  0  0  0
    2.3164   -4.4420    0.0000 C   0  0  0  0  0  0  0  0  0  0  0  0
    4.4966   -3.2318    0.0000 C   0  0  0  0  0  0  0  0  0  0  0  0
    5.1703   -2.8294    0.0000 N   0  0  0  0  0  0  0  0  0  0  0  0
    4.4911   -4.0537    0.0000 C   0  0  0  0  0  0  0  0  0  0  0  0
    5.1703   -4.4631    0.0000 N   0  0  0  0  0  0  0  0  0  0  0  0
    5.9012   -4.0573    0.0000 C   0  0  0  0  0  0  0  0  0  0  0  0
    5.9043   -3.2276    0.0000 C   0  0  0  0  0  0  0  0  0  0  0  0
    6.6862   -2.9810    0.0000 N   0  0  0  0  0  0  0  0  0  0  0  0
    6.6862   -4.3115    0.0000 N   0  0  0  0  0  0  0  0  0  0  0  0
    8.8452   -1.0782    0.0000 C   0  0  0  0  0  0  0  0  0  0  0  0
    9.1054   -0.2820    0.0000 C   0  0  0  0  0  0  0  0  0  0  0  0
    9.8923   -0.1284    0.0000 C   0  0  0  0  0  0  0  0  0  0  0  0
   10.4323   -0.7013    0.0000 C   0  0  0  0  0  0  0  0  0  0  0  0
   10.1891   -1.4989    0.0000 N   0  0  0  0  0  0  0  0  0  0  0  0
    9.3855   -1.6641    0.0000 C   0  0  0  0  0  0  0  0  0  0  0  0
    9.1426   -2.4615    0.0000 C   0  0  0  0  0  0  0  0  0  0  0  0
    7.7585   -2.0279    0.0000 C   0  0  0  0  0  0  0  0  0  0  0  0
    8.3250   -2.6193    0.0000 C   0  0  0  0  0  0  0  0  0  0  0  0
    6.9524   -2.2036    0.0000 C   0  0  0  0  0  0  0  0  0  0  0  0
    8.0486   -1.2520    0.0000 C   0  0  0  0  0  0  0  0  0  0  0  0
    7.1745   -3.6547    0.0000 N   0  0  0  0  0  0  0  0  0  0  0  0
  1  2  3  0  0  0  0
  2  3  1  0  0  0  0
  3  4  1  0  0  0  0
  3  5  2  0  0  0  0
  4  6  2  0  0  0  0
  5  9  1  0  0  0  0
  6  7  1  0  0  0  0
  8  6  1  0  0  0  0
  9  8  2  0  0  0  0
 10  7  1  0  0  0  0
 10 11  1  0  0  0  0
 11 15  2  0  0  0  0
 12 10  2  0  0  0  0
 12 13  1  0  0  0  0
 13 14  2  0  0  0  0
 14 15  1  0  0  0  0
 14 17  1  0  0  0  0
 15 16  1  0  0  0  0
 17 29  2  0  0  0  0
 18 19  1  0  0  0  0
 18 23  1  0  0  0  0
 19 20  2  0  0  0  0
 21 20  1  0  0  0  0
 22 21  2  0  0  0  0
 23 22  1  0  0  0  0
 24 23  2  0  0  0  0
 25 26  2  0  0  0  0
 25 28  1  0  0  0  0
 26 24  1  0  0  0  0
 27 25  1  0  0  0  0
 27 16  1  0  0  0  0
 28 18  2  0  0  0  0
M  END
> <ID>
SCHEMBL21167478

> <InChIKey>
FXCGMKIUISLYDN-UHFFFAOYSA-N

> <MW>
380.415

> <Series_Name>
Series_11

$$$$
SCHEMBL21167479
  Mrv1719007231910502D 0   0.00000     0.00000     0

 28 31  0  0  0  0              1 V2000 
    6.6392   -4.2572    0.0000 N   0  0  0  0  0  0  0  0  0  0  0  0
   10.3726   -0.6082    0.0000 C   0  0  0  0  0  0  0  0  0  0  0  0
    9.8658   -0.0338    0.0000 C   0  0  0  0  0  0  0  0  0  0  0  0
    9.0550   -0.1859    0.0000 C   0  0  0  0  0  0  0  0  0  0  0  0
    8.7847   -0.9686    0.0000 C   0  0  0  0  0  0  0  0  0  0  0  0
    9.3196   -1.5767    0.0000 C   0  0  0  0  0  0  0  0  0  0  0  0
    8.1089   -1.1150    0.0000 C   0  0  0  0  0  0  0  0  0  0  0  0
    7.6697   -1.9315    0.0000 C   0  0  0  0  0  0  0  0  0  0  0  0
    9.0718   -2.3820    0.0000 C   0  0  0  0  0  0  0  0  0  0  0  0
    8.2609   -2.5341    0.0000 C   0  0  0  0  0  0  0  0  0  0  0  0
    6.8757   -2.1117    0.0000 C   0  0  0  0  0  0  0  0  0  0  0  0
    1.5035   -3.1365    0.0000 C   0  0  0  0  0  0  0  0  0  0  0  0
    4.4092   -3.1535    0.0000 C   0  0  0  0  0  0  0  0  0  0  0  0
    2.9564   -3.1365    0.0000 C   0  0  0  0  0  0  0  0  0  0  0  0
    5.8226   -3.1478    0.0000 C   0  0  0  0  0  0  0  0  0  0  0  0
    5.8283   -3.9756    0.0000 C   0  0  0  0  0  0  0  0  0  0  0  0
    2.9564   -3.9700    0.0000 C   0  0  0  0  0  0  0  0  0  0  0  0
    2.2637   -4.3585    0.0000 C   0  0  0  0  0  0  0  0  0  0  0  0
    1.5035   -3.9531    0.0000 C   0  0  0  0  0  0  0  0  0  0  0  0
    4.4092   -3.9700    0.0000 C   0  0  0  0  0  0  0  0  0  0  0  0
    0.8278   -2.7368    0.0000 C   0  0  0  0  0  0  0  0  0  0  0  0
    0.1013   -2.3271    0.0000 C   0  0  0  0  0  0  0  0  0  0  0  0
    5.1187   -4.4092    0.0000 N   0  0  0  0  0  0  0  0  0  0  0  0
   10.1530   -1.4359    0.0000 N   0  0  0  0  0  0  0  0  0  0  0  0
    6.6392   -2.9141    0.0000 N   0  0  0  0  0  0  0  0  0  0  0  0
    5.1187   -2.7621    0.0000 N   0  0  0  0  0  0  0  0  0  0  0  0
    3.6828   -2.7621    0.0000 N   0  0  0  0  0  0  0  0  0  0  0  0
    2.2469   -2.7621    0.0000 N   0  0  0  0  0  0  0  0  0  0  0  0
  2  3  1  0  0  0  0
  3  4  2  0  0  0  0
  4  5  1  0  0  0  0
  5  6  1  0  0  0  0
  5  7  2  0  0  0  0
  7  8  1  0  0  0  0
  6  9  2  0  0  0  0
  9 10  1  0  0  0  0
  8 10  2  0  0  0  0
  8 11  1  0  0  0  0
 15 16  1  0  0  0  0
  1 16  1  0  0  0  0
 14 17  1  0  0  0  0
 17 18  2  0  0  0  0
 18 19  1  0  0  0  0
 12 19  2  0  0  0  0
 13 20  2  0  0  0  0
 21 12  1  0  0  0  0
 21 22  3  0  0  0  0
 16 23  2  0  0  0  0
 20 23  1  0  0  0  0
  2 24  2  0  0  0  0
  6 24  1  0  0  0  0
 11 25  1  0  0  0  0
 15 25  1  0  0  0  0
 13 26  1  0  0  0  0
 15 26  2  0  0  0  0
 13 27  1  0  0  0  0
 14 27  1  0  0  0  0
 12 28  1  0  0  0  0
 14 28  2  0  0  0  0
M  END
> <ID>
SCHEMBL21167479

> <InChIKey>
WIJPEGFTFBCUJW-UHFFFAOYSA-N

> <MW>
367.416

> <Series_Name>
Series_11

$$$$
SCHEMBL21167506
  Mrv1719007231910512D 0   0.00000     0.00000     0

 27 30  0  0  0  0              1 V2000 
    6.2993   -4.3603    0.0000 N   0  0  0  0  0  0  0  0  0  0  0  0
    0.2822   -4.7427    0.0000 Cl  0  0  0  0  0  0  0  0  0  0  0  0
    9.9040   -0.5826    0.0000 C   0  0  0  0  0  0  0  0  0  0  0  0
    9.3397   -0.0182    0.0000 C   0  0  0  0  0  0  0  0  0  0  0  0
    8.5568   -0.2003    0.0000 C   0  0  0  0  0  0  0  0  0  0  0  0
    8.2837   -1.0074    0.0000 C   0  0  0  0  0  0  0  0  0  0  0  0
    7.5009   -1.2016    0.0000 C   0  0  0  0  0  0  0  0  0  0  0  0
    7.2703   -1.9905    0.0000 C   0  0  0  0  0  0  0  0  0  0  0  0
    8.8785   -1.5900    0.0000 C   0  0  0  0  0  0  0  0  0  0  0  0
    8.5568   -2.4214    0.0000 C   0  0  0  0  0  0  0  0  0  0  0  0
    7.8468   -2.5852    0.0000 C   0  0  0  0  0  0  0  0  0  0  0  0
    6.4813   -2.2029    0.0000 C   0  0  0  0  0  0  0  0  0  0  0  0
    5.4982   -3.2710    0.0000 C   0  0  0  0  0  0  0  0  0  0  0  0
    3.9871   -3.3620    0.0000 C   0  0  0  0  0  0  0  0  0  0  0  0
    2.6034   -3.4167    0.0000 C   0  0  0  0  0  0  0  0  0  0  0  0
    1.1106   -3.4773    0.0000 C   0  0  0  0  0  0  0  0  0  0  0  0
    1.1106   -4.2845    0.0000 C   0  0  0  0  0  0  0  0  0  0  0  0
    5.4982   -4.1024    0.0000 C   0  0  0  0  0  0  0  0  0  0  0  0
    3.9871   -4.1510    0.0000 C   0  0  0  0  0  0  0  0  0  0  0  0
    2.6034   -4.2238    0.0000 C   0  0  0  0  0  0  0  0  0  0  0  0
    1.9116   -4.6790    0.0000 C   0  0  0  0  0  0  0  0  0  0  0  0
    1.8388   -3.0586    0.0000 N   0  0  0  0  0  0  0  0  0  0  0  0
    6.2447   -3.0222    0.0000 N   0  0  0  0  0  0  0  0  0  0  0  0
    3.2771   -3.0040    0.0000 N   0  0  0  0  0  0  0  0  0  0  0  0
    9.7038   -1.4019    0.0000 N   0  0  0  0  0  0  0  0  0  0  0  0
    4.7700   -4.5788    0.0000 N   0  0  0  0  0  0  0  0  0  0  0  0
    4.7153   -2.9221    0.0000 N   0  0  0  0  0  0  0  0  0  0  0  0
  3  4  1  0  0  0  0
  4  5  2  0  0  0  0
  5  6  1  0  0  0  0
  6  7  2  0  0  0  0
  7  8  1  0  0  0  0
  6  9  1  0  0  0  0
  9 10  2  0  0  0  0
 10 11  1  0  0  0  0
  8 11  2  0  0  0  0
  8 12  1  0  0  0  0
 16 17  1  0  0  0  0
  2 17  1  0  0  0  0
 13 18  1  0  0  0  0
  1 18  1  0  0  0  0
 14 19  2  0  0  0  0
 15 20  2  0  0  0  0
 20 21  1  0  0  0  0
 17 21  2  0  0  0  0
 15 22  1  0  0  0  0
 16 22  2  0  0  0  0
 12 23  1  0  0  0  0
 13 23  1  0  0  0  0
 14 24  1  0  0  0  0
 15 24  1  0  0  0  0
  3 25  2  0  0  0  0
  9 25  1  0  0  0  0
 18 26  2  0  0  0  0
 19 26  1  0  0  0  0
 13 27  2  0  0  0  0
 14 27  1  0  0  0  0
M  END
> <ID>
SCHEMBL21167506

> <InChIKey>
ANIUSCIKXLPHSB-UHFFFAOYSA-N

> <MW>
377.84

> <Series_Name>
Series_11

$$$$
SCHEMBL21167510
  Mrv1719007231910512D 0   0.00000     0.00000     0

 28 31  0  0  0  0              1 V2000 
    0.3946   -4.8591    0.0000 Cl  0  0  0  0  0  0  0  0  0  0  0  0
    1.2091   -4.3854    0.0000 C   0  0  0  0  0  0  0  0  0  0  0  0
    1.2057   -3.5676    0.0000 C   0  0  0  0  0  0  0  0  0  0  0  0
    1.9108   -3.1301    0.0000 N   0  0  0  0  0  0  0  0  0  0  0  0
    2.7073   -3.5140    0.0000 C   0  0  0  0  0  0  0  0  0  0  0  0
    3.3485   -2.8299    0.0000 N   0  0  0  0  0  0  0  0  0  0  0  0
    2.7002   -4.3331    0.0000 C   0  0  0  0  0  0  0  0  0  0  0  0
    2.0023   -4.7804    0.0000 C   0  0  0  0  0  0  0  0  0  0  0  0
    4.0914   -3.4560    0.0000 C   0  0  0  0  0  0  0  0  0  0  0  0
    4.7863   -3.0027    0.0000 N   0  0  0  0  0  0  0  0  0  0  0  0
    4.0887   -4.2642    0.0000 C   0  0  0  0  0  0  0  0  0  0  0  0
    4.8408   -4.6588    0.0000 N   0  0  0  0  0  0  0  0  0  0  0  0
    5.5968   -3.3723    0.0000 C   0  0  0  0  0  0  0  0  0  0  0  0
    6.3149   -3.0937    0.0000 N   0  0  0  0  0  0  0  0  0  0  0  0
    5.6006   -4.2114    0.0000 C   0  0  0  0  0  0  0  0  0  0  0  0
    6.3695   -4.4404    0.0000 N   0  0  0  0  0  0  0  0  0  0  0  0
    6.8245   -3.7307    0.0000 N   0  0  0  0  0  0  0  0  0  0  0  0
    7.5848   -1.3129    0.0000 C   0  0  0  0  0  0  0  0  0  0  0  0
    7.3674   -2.0814    0.0000 C   0  0  0  0  0  0  0  0  0  0  0  0
    9.4281   -0.1123    0.0000 C   0  0  0  0  0  0  0  0  0  0  0  0
   10.0090   -0.6901    0.0000 C   0  0  0  0  0  0  0  0  0  0  0  0
    9.7726   -1.4741    0.0000 N   0  0  0  0  0  0  0  0  0  0  0  0
    8.6352   -0.3205    0.0000 C   0  0  0  0  0  0  0  0  0  0  0  0
    8.3807   -1.1053    0.0000 C   0  0  0  0  0  0  0  0  0  0  0  0
    8.9813   -1.6837    0.0000 C   0  0  0  0  0  0  0  0  0  0  0  0
    6.5594   -2.3244    0.0000 C   0  0  0  0  0  0  0  0  0  0  0  0
    8.7603   -2.4659    0.0000 C   0  0  0  0  0  0  0  0  0  0  0  0
    7.9445   -2.6781    0.0000 C   0  0  0  0  0  0  0  0  0  0  0  0
  1  2  1  0  0  0  0
  2  8  2  0  0  0  0
  3  2  1  0  0  0  0
  3  4  2  0  0  0  0
  5  4  1  0  0  0  0
  5  6  1  0  0  0  0
  7  5  2  0  0  0  0
  8  7  1  0  0  0  0
  9  6  1  0  0  0  0
  9 10  1  0  0  0  0
 10 13  2  0  0  0  0
 11  9  2  0  0  0  0
 11 12  1  0  0  0  0
 12 15  2  0  0  0  0
 13 14  1  0  0  0  0
 15 13  1  0  0  0  0
 15 16  1  0  0  0  0
 16 17  2  0  0  0  0
 18 19  1  0  0  0  0
 18 24  2  0  0  0  0
 19 28  2  0  0  0  0
 20 21  1  0  0  0  0
 22 21  2  0  0  0  0
 23 20  2  0  0  0  0
 23 24  1  0  0  0  0
 24 25  1  0  0  0  0
 25 22  1  0  0  0  0
 26 19  1  0  0  0  0
 26 14  1  0  0  0  0
 27 25  2  0  0  0  0
 28 27  1  0  0  0  0
M  END
> <ID>
SCHEMBL21167510

> <InChIKey>
NKFLJNKMTMTEEW-UHFFFAOYSA-N

> <MW>
390.84

> <Series_Name>
Series_11

$$$$
SCHEMBL21167547
  Mrv1719007231910522D 0   0.00000     0.00000     0

 30 33  0  0  0  0              1 V2000 
    1.0922   -0.7195    0.0000 O   0  0  0  0  0  0  0  0  0  0  0  0
    5.8162   -4.3513    0.0000 N   0  0  0  0  0  0  0  0  0  0  0  0
    9.4308   -0.6241    0.0000 C   0  0  0  0  0  0  0  0  0  0  0  0
    8.9107   -0.0174    0.0000 C   0  0  0  0  0  0  0  0  0  0  0  0
    8.1479   -0.1734    0.0000 C   0  0  0  0  0  0  0  0  0  0  0  0
    7.8590   -0.9882    0.0000 C   0  0  0  0  0  0  0  0  0  0  0  0
    0.8842   -1.5082    0.0000 C   0  0  0  0  0  0  0  0  0  0  0  0
    0.1734   -1.9590    0.0000 C   0  0  0  0  0  0  0  0  0  0  0  0
    7.0904   -1.1615    0.0000 C   0  0  0  0  0  0  0  0  0  0  0  0
    8.4022   -1.6180    0.0000 C   0  0  0  0  0  0  0  0  0  0  0  0
    8.1306   -2.4444    0.0000 C   0  0  0  0  0  0  0  0  0  0  0  0
    7.3851   -2.6004    0.0000 C   0  0  0  0  0  0  0  0  0  0  0  0
    6.0676   -2.1497    0.0000 C   0  0  0  0  0  0  0  0  0  0  0  0
    2.2595   -3.2187    0.0000 C   0  0  0  0  0  0  0  0  0  0  0  0
    1.5949   -2.8084    0.0000 C   0  0  0  0  0  0  0  0  0  0  0  0
    0.8842   -3.2187    0.0000 C   0  0  0  0  0  0  0  0  0  0  0  0
    3.6579   -3.2187    0.0000 C   0  0  0  0  0  0  0  0  0  0  0  0
    5.0217   -3.2303    0.0000 C   0  0  0  0  0  0  0  0  0  0  0  0
    5.0275   -4.0624    0.0000 C   0  0  0  0  0  0  0  0  0  0  0  0
    0.9188   -4.0913    0.0000 C   0  0  0  0  0  0  0  0  0  0  0  0
    1.5429   -4.4727    0.0000 C   0  0  0  0  0  0  0  0  0  0  0  0
    3.6579   -4.0567    0.0000 C   0  0  0  0  0  0  0  0  0  0  0  0
    6.7957   -1.9763    0.0000 C   0  0  0  0  0  0  0  0  0  0  0  0
    4.3427   -4.5073    0.0000 N   0  0  0  0  0  0  0  0  0  0  0  0
    2.2623   -4.0739    0.0000 N   0  0  0  0  0  0  0  0  0  0  0  0
    5.8162   -2.9991    0.0000 N   0  0  0  0  0  0  0  0  0  0  0  0
    4.3427   -2.8258    0.0000 N   0  0  0  0  0  0  0  0  0  0  0  0
    2.9645   -2.8258    0.0000 N   0  0  0  0  0  0  0  0  0  0  0  0
    9.2054   -1.4909    0.0000 N   0  0  0  0  0  0  0  0  0  0  0  0
    0.1820   -2.8171    0.0000 O   0  0  0  0  0  0  0  0  0  0  0  0
  3  4  1  0  0  0  0
  4  5  2  0  0  0  0
  5  6  1  0  0  0  0
  1  7  1  0  0  0  0
  7  8  1  0  0  0  0
  6  9  2  0  0  0  0
  6 10  1  0  0  0  0
 10 11  2  0  0  0  0
 11 12  1  0  0  0  0
 14 15  2  0  0  0  0
 15 16  1  0  0  0  0
 18 19  1  0  0  0  0
  2 19  1  0  0  0  0
 16 20  2  0  0  0  0
 20 21  1  0  0  0  0
 17 22  2  0  0  0  0
  9 23  1  0  0  0  0
 12 23  2  0  0  0  0
 13 23  1  0  0  0  0
 19 24  2  0  0  0  0
 22 24  1  0  0  0  0
 14 25  1  0  0  0  0
 21 25  2  0  0  0  0
 13 26  1  0  0  0  0
 18 26  1  0  0  0  0
 17 27  1  0  0  0  0
 18 27  2  0  0  0  0
 14 28  1  0  0  0  0
 17 28  1  0  0  0  0
  3 29  2  0  0  0  0
 10 29  1  0  0  0  0
  8 30  1  0  0  0  0
 16 30  1  0  0  0  0
M  END
> <ID>
SCHEMBL21167547

> <InChIKey>
SZEYTFGOOBBUSS-UHFFFAOYSA-N

> <MW>
403.446

> <Series_Name>
Series_11

$$$$
SCHEMBL21167554
  Mrv1719007231910522D 0   0.00000     0.00000     0

 32 35  0  0  0  0              1 V2000 
    2.9564   -2.8279    0.0000 N   0  0  0  0  0  0  0  0  0  0  0  0
    3.6887   -3.2221    0.0000 C   0  0  0  0  0  0  0  0  0  0  0  0
    4.3963   -2.8104    0.0000 C   0  0  0  0  0  0  0  0  0  0  0  0
    5.1268   -3.2350    0.0000 C   0  0  0  0  0  0  0  0  0  0  0  0
    5.8271   -2.5815    0.0000 N   0  0  0  0  0  0  0  0  0  0  0  0
    5.1201   -4.0489    0.0000 N   0  0  0  0  0  0  0  0  0  0  0  0
    3.6995   -4.0550    0.0000 C   0  0  0  0  0  0  0  0  0  0  0  0
    4.3991   -4.4545    0.0000 C   0  0  0  0  0  0  0  0  0  0  0  0
    6.5636   -3.2252    0.0000 C   0  0  0  0  0  0  0  0  0  0  0  0
    7.2624   -2.8279    0.0000 N   0  0  0  0  0  0  0  0  0  0  0  0
    6.5796   -4.0531    0.0000 C   0  0  0  0  0  0  0  0  0  0  0  0
    7.2624   -4.4560    0.0000 N   0  0  0  0  0  0  0  0  0  0  0  0
    8.0122   -3.2321    0.0000 C   0  0  0  0  0  0  0  0  0  0  0  0
    8.7621   -2.9778    0.0000 N   0  0  0  0  0  0  0  0  0  0  0  0
    8.0078   -4.0487    0.0000 C   0  0  0  0  0  0  0  0  0  0  0  0
    8.7621   -4.3060    0.0000 N   0  0  0  0  0  0  0  0  0  0  0  0
    9.2548   -3.6419    0.0000 N   0  0  0  0  0  0  0  0  0  0  0  0
    0.8141   -3.2349    0.0000 O   0  0  0  0  0  0  0  0  0  0  0  0
    1.5390   -2.8110    0.0000 C   0  0  0  0  0  0  0  0  0  0  0  0
    2.2686   -3.2254    0.0000 C   0  0  0  0  0  0  0  0  0  0  0  0
    0.0695   -2.7739    0.0000 C   0  0  0  0  0  0  0  0  0  0  0  0
    9.0603   -2.2006    0.0000 C   0  0  0  0  0  0  0  0  0  0  0  0
    9.8638   -2.0133    0.0000 C   0  0  0  0  0  0  0  0  0  0  0  0
   10.1239   -1.2339    0.0000 C   0  0  0  0  0  0  0  0  0  0  0  0
   11.1822   -0.2936    0.0000 C   0  0  0  0  0  0  0  0  0  0  0  0
   11.9863   -0.1332    0.0000 C   0  0  0  0  0  0  0  0  0  0  0  0
   12.5208   -0.7667    0.0000 C   0  0  0  0  0  0  0  0  0  0  0  0
   12.2540   -1.5210    0.0000 N   0  0  0  0  0  0  0  0  0  0  0  0
   10.9489   -1.0761    0.0000 C   0  0  0  0  0  0  0  0  0  0  0  0
   10.4130   -2.6502    0.0000 C   0  0  0  0  0  0  0  0  0  0  0  0
   11.4485   -1.6830    0.0000 C   0  0  0  0  0  0  0  0  0  0  0  0
   11.2331   -2.4448    0.0000 C   0  0  0  0  0  0  0  0  0  0  0  0
  1  2  1  0  0  0  0
  1 20  1  0  0  0  0
  2  7  2  0  0  0  0
  3  2  1  0  0  0  0
  3  4  2  0  0  0  0
  4  5  1  0  0  0  0
  5  9  1  0  0  0  0
  6  4  1  0  0  0  0
  7  8  1  0  0  0  0
  8  6  2  0  0  0  0
  9 10  1  0  0  0  0
  9 11  2  0  0  0  0
 10 13  2  0  0  0  0
 11 12  1  0  0  0  0
 12 15  2  0  0  0  0
 13 14  1  0  0  0  0
 14 17  1  0  0  0  0
 15 13  1  0  0  0  0
 15 16  1  0  0  0  0
 18 19  1  0  0  0  0
 20 19  1  0  0  0  0
 21 18  1  0  0  0  0
 22 23  1  0  0  0  0
 22 14  1  0  0  0  0
 23 30  2  0  0  0  0
 24 23  1  0  0  0  0
 24 29  2  0  0  0  0
 25 26  2  0  0  0  0
 27 26  1  0  0  0  0
 28 27  2  0  0  0  0
 29 25  1  0  0  0  0
 30 32  1  0  0  0  0
 31 29  1  0  0  0  0
 31 28  1  0  0  0  0
 32 31  2  0  0  0  0
M  END
> <ID>
SCHEMBL21167554

> <InChIKey>
WESNTWRNWAFEEC-UHFFFAOYSA-N

> <MW>
431.504

> <Series_Name>
Series_11

$$$$
SCHEMBL21167555
  Mrv1719007231910522D 0   0.00000     0.00000     0

 31 34  0  0  0  0              1 V2000 
    0.0217   -2.7274    0.0000 C   0  0  0  0  0  0  0  0  0  0  0  0
    8.7558   -4.2535    0.0000 N   0  0  0  0  0  0  0  0  0  0  0  0
   12.5331   -0.6277    0.0000 C   0  0  0  0  0  0  0  0  0  0  0  0
   11.9919   -0.0217    0.0000 C   0  0  0  0  0  0  0  0  0  0  0  0
   11.1910   -0.1732    0.0000 C   0  0  0  0  0  0  0  0  0  0  0  0
   10.9168   -0.9596    0.0000 C   0  0  0  0  0  0  0  0  0  0  0  0
   10.1087   -1.1256    0.0000 C   0  0  0  0  0  0  0  0  0  0  0  0
    9.8346   -1.9265    0.0000 C   0  0  0  0  0  0  0  0  0  0  0  0
   11.4436   -1.5874    0.0000 C   0  0  0  0  0  0  0  0  0  0  0  0
   11.2127   -2.3594    0.0000 C   0  0  0  0  0  0  0  0  0  0  0  0
   10.4334   -2.5542    0.0000 C   0  0  0  0  0  0  0  0  0  0  0  0
    9.0480   -2.0997    0.0000 C   0  0  0  0  0  0  0  0  0  0  0  0
    2.1863   -3.1387    0.0000 C   0  0  0  0  0  0  0  0  0  0  0  0
    1.4503   -2.7274    0.0000 C   0  0  0  0  0  0  0  0  0  0  0  0
    5.0580   -3.1676    0.0000 C   0  0  0  0  0  0  0  0  0  0  0  0
    4.3509   -2.7274    0.0000 C   0  0  0  0  0  0  0  0  0  0  0  0
    3.6149   -3.1531    0.0000 C   0  0  0  0  0  0  0  0  0  0  0  0
    6.5011   -3.1531    0.0000 C   0  0  0  0  0  0  0  0  0  0  0  0
    6.5155   -3.9612    0.0000 C   0  0  0  0  0  0  0  0  0  0  0  0
    7.9658   -3.1531    0.0000 C   0  0  0  0  0  0  0  0  0  0  0  0
    3.6582   -4.0046    0.0000 C   0  0  0  0  0  0  0  0  0  0  0  0
    4.3075   -4.3725    0.0000 C   0  0  0  0  0  0  0  0  0  0  0  0
    7.9658   -3.9685    0.0000 C   0  0  0  0  0  0  0  0  0  0  0  0
    5.0868   -3.9937    0.0000 N   0  0  0  0  0  0  0  0  0  0  0  0
    7.2514   -2.7599    0.0000 N   0  0  0  0  0  0  0  0  0  0  0  0
    2.8897   -2.7599    0.0000 N   0  0  0  0  0  0  0  0  0  0  0  0
    7.2514   -4.4050    0.0000 N   0  0  0  0  0  0  0  0  0  0  0  0
    5.8012   -2.7599    0.0000 N   0  0  0  0  0  0  0  0  0  0  0  0
    8.7558   -2.9222    0.0000 N   0  0  0  0  0  0  0  0  0  0  0  0
    0.7143   -3.1820    0.0000 O   0  0  0  0  0  0  0  0  0  0  0  0
   12.2950   -1.4503    0.0000 N   0  0  0  0  0  0  0  0  0  0  0  0
  3  4  1  0  0  0  0
  4  5  2  0  0  0  0
  5  6  1  0  0  0  0
  6  7  2  0  0  0  0
  7  8  1  0  0  0  0
  6  9  1  0  0  0  0
  9 10  2  0  0  0  0
 10 11  1  0  0  0  0
  8 11  2  0  0  0  0
  8 12  1  0  0  0  0
 13 14  1  0  0  0  0
 15 16  2  0  0  0  0
 16 17  1  0  0  0  0
 18 19  2  0  0  0  0
 17 21  2  0  0  0  0
 21 22  1  0  0  0  0
 20 23  1  0  0  0  0
  2 23  1  0  0  0  0
 15 24  1  0  0  0  0
 22 24  2  0  0  0  0
 18 25  1  0  0  0  0
 20 25  2  0  0  0  0
 13 26  1  0  0  0  0
 17 26  1  0  0  0  0
 19 27  1  0  0  0  0
 23 27  2  0  0  0  0
 15 28  1  0  0  0  0
 18 28  1  0  0  0  0
 12 29  1  0  0  0  0
 20 29  1  0  0  0  0
  1 30  1  0  0  0  0
 14 30  1  0  0  0  0
  3 31  2  0  0  0  0
  9 31  1  0  0  0  0
M  END
> <ID>
SCHEMBL21167555

> <InChIKey>
LJBSMOQHLDORCI-UHFFFAOYSA-N

> <MW>
416.489

> <Series_Name>
Series_11

$$$$
SCHEMBL21167585
  Mrv1719007231910542D 0   0.00000     0.00000     0

 27 30  0  0  0  0              1 V2000 
    0.1180   -3.1875    0.0000 C   0  0  0  0  0  0  0  0  0  0  0  0
    0.1292   -4.0203    0.0000 C   0  0  0  0  0  0  0  0  0  0  0  0
    0.8151   -2.8054    0.0000 N   0  0  0  0  0  0  0  0  0  0  0  0
    0.8415   -4.4273    0.0000 C   0  0  0  0  0  0  0  0  0  0  0  0
    1.5658   -4.0323    0.0000 C   0  0  0  0  0  0  0  0  0  0  0  0
    1.5596   -3.1860    0.0000 C   0  0  0  0  0  0  0  0  0  0  0  0
    2.2747   -2.5685    0.0000 N   0  0  0  0  0  0  0  0  0  0  0  0
    0.8428   -5.2223    0.0000 C   0  0  0  0  0  0  0  0  0  0  0  0
    3.0218   -3.1940    0.0000 C   0  0  0  0  0  0  0  0  0  0  0  0
    3.7343   -2.8054    0.0000 N   0  0  0  0  0  0  0  0  0  0  0  0
    3.0269   -4.0117    0.0000 C   0  0  0  0  0  0  0  0  0  0  0  0
    3.7343   -4.4357    0.0000 N   0  0  0  0  0  0  0  0  0  0  0  0
    4.4752   -4.0274    0.0000 C   0  0  0  0  0  0  0  0  0  0  0  0
    4.4558   -3.1804    0.0000 C   0  0  0  0  0  0  0  0  0  0  0  0
    5.2697   -2.9382    0.0000 N   0  0  0  0  0  0  0  0  0  0  0  0
    5.2697   -4.2841    0.0000 N   0  0  0  0  0  0  0  0  0  0  0  0
    5.5280   -2.1777    0.0000 C   0  0  0  0  0  0  0  0  0  0  0  0
    6.3591   -2.0098    0.0000 C   0  0  0  0  0  0  0  0  0  0  0  0
    6.6144   -1.2318    0.0000 C   0  0  0  0  0  0  0  0  0  0  0  0
    7.4395   -1.0535    0.0000 C   0  0  0  0  0  0  0  0  0  0  0  0
    8.5254   -0.1198    0.0000 C   0  0  0  0  0  0  0  0  0  0  0  0
    9.0703   -0.7350    0.0000 C   0  0  0  0  0  0  0  0  0  0  0  0
    8.8145   -1.4975    0.0000 N   0  0  0  0  0  0  0  0  0  0  0  0
    7.6948   -0.2897    0.0000 C   0  0  0  0  0  0  0  0  0  0  0  0
    8.0111   -1.6444    0.0000 C   0  0  0  0  0  0  0  0  0  0  0  0
    7.7514   -2.4499    0.0000 C   0  0  0  0  0  0  0  0  0  0  0  0
    6.9148   -2.6154    0.0000 C   0  0  0  0  0  0  0  0  0  0  0  0
  1  2  2  0  0  0  0
  1  3  1  0  0  0  0
  2  4  1  0  0  0  0
  3  6  2  0  0  0  0
  4  5  2  0  0  0  0
  5  6  1  0  0  0  0
  6  7  1  0  0  0  0
  7  9  1  0  0  0  0
  8  4  1  0  0  0  0
  9 10  1  0  0  0  0
  9 11  2  0  0  0  0
 10 14  2  0  0  0  0
 11 12  1  0  0  0  0
 12 13  2  0  0  0  0
 13 14  1  0  0  0  0
 13 16  1  0  0  0  0
 14 15  1  0  0  0  0
 15 17  1  0  0  0  0
 17 18  1  0  0  0  0
 18 27  2  0  0  0  0
 19 20  2  0  0  0  0
 19 18  1  0  0  0  0
 20 24  1  0  0  0  0
 21 22  1  0  0  0  0
 23 22  2  0  0  0  0
 24 21  2  0  0  0  0
 25 23  1  0  0  0  0
 25 20  1  0  0  0  0
 26 25  2  0  0  0  0
 27 26  1  0  0  0  0
M  END
> <ID>
SCHEMBL21167585

> <InChIKey>
UYBXGRRPRSAIKA-UHFFFAOYSA-N

> <MW>
357.421

> <Series_Name>
Series_11

$$$$
SCHEMBL21167641
  Mrv1719007231910592D 0   0.00000     0.00000     0

 33 37  0  0  0  0              1 V2000 
    1.6878   -3.0944    0.0000 N   0  0  0  0  0  0  0  0  0  0  0  0
    2.4176   -3.4718    0.0000 C   0  0  0  0  0  0  0  0  0  0  0  0
    3.0768   -3.0591    0.0000 N   0  0  0  0  0  0  0  0  0  0  0  0
    2.4449   -4.3275    0.0000 C   0  0  0  0  0  0  0  0  0  0  0  0
    3.1580   -4.7039    0.0000 C   0  0  0  0  0  0  0  0  0  0  0  0
    3.8142   -3.4413    0.0000 C   0  0  0  0  0  0  0  0  0  0  0  0
    3.8221   -4.2692    0.0000 C   0  0  0  0  0  0  0  0  0  0  0  0
    4.4657   -2.7778    0.0000 N   0  0  0  0  0  0  0  0  0  0  0  0
    5.1997   -3.4077    0.0000 C   0  0  0  0  0  0  0  0  0  0  0  0
    5.8547   -2.9888    0.0000 N   0  0  0  0  0  0  0  0  0  0  0  0
    5.2014   -4.2365    0.0000 C   0  0  0  0  0  0  0  0  0  0  0  0
    5.8898   -4.6591    0.0000 N   0  0  0  0  0  0  0  0  0  0  0  0
    6.6218   -3.3759    0.0000 C   0  0  0  0  0  0  0  0  0  0  0  0
    7.3315   -3.0944    0.0000 N   0  0  0  0  0  0  0  0  0  0  0  0
    6.6175   -4.2014    0.0000 C   0  0  0  0  0  0  0  0  0  0  0  0
    7.3666   -4.4481    0.0000 N   0  0  0  0  0  0  0  0  0  0  0  0
    0.2860   -3.1598    0.0000 C   0  0  0  0  0  0  0  0  0  0  0  0
    0.2637   -2.3207    0.0000 O   0  0  0  0  0  0  0  0  0  0  0  0
    0.9999   -3.5119    0.0000 C   0  0  0  0  0  0  0  0  0  0  0  0
    1.6922   -2.2595    0.0000 C   0  0  0  0  0  0  0  0  0  0  0  0
    0.9789   -1.8719    0.0000 C   0  0  0  0  0  0  0  0  0  0  0  0
    7.5750   -2.2982    0.0000 C   0  0  0  0  0  0  0  0  0  0  0  0
    8.3594   -2.0921    0.0000 C   0  0  0  0  0  0  0  0  0  0  0  0
    8.5771   -1.2963    0.0000 C   0  0  0  0  0  0  0  0  0  0  0  0
    9.3796   -1.0953    0.0000 C   0  0  0  0  0  0  0  0  0  0  0  0
    9.6009   -0.2961    0.0000 C   0  0  0  0  0  0  0  0  0  0  0  0
   10.3818   -0.1089    0.0000 C   0  0  0  0  0  0  0  0  0  0  0  0
   10.9013   -0.6956    0.0000 C   0  0  0  0  0  0  0  0  0  0  0  0
   10.6719   -1.5296    0.0000 N   0  0  0  0  0  0  0  0  0  0  0  0
    9.9203   -1.6986    0.0000 C   0  0  0  0  0  0  0  0  0  0  0  0
    9.6816   -2.5160    0.0000 C   0  0  0  0  0  0  0  0  0  0  0  0
    8.9030   -2.7171    0.0000 C   0  0  0  0  0  0  0  0  0  0  0  0
    7.8061   -3.7449    0.0000 N   0  0  0  0  0  0  0  0  0  0  0  0
  1  2  1  0  0  0  0
  1 19  1  0  0  0  0
  1 20  1  0  0  0  0
  2  3  2  0  0  0  0
  2  4  1  0  0  0  0
  3  6  1  0  0  0  0
  4  5  2  0  0  0  0
  6  7  2  0  0  0  0
  7  5  1  0  0  0  0
  8  6  1  0  0  0  0
  8  9  1  0  0  0  0
  9 10  1  0  0  0  0
  9 11  2  0  0  0  0
 10 13  2  0  0  0  0
 11 12  1  0  0  0  0
 12 15  2  0  0  0  0
 13 14  1  0  0  0  0
 14 22  1  0  0  0  0
 15 13  1  0  0  0  0
 15 16  1  0  0  0  0
 17 18  1  0  0  0  0
 19 17  1  0  0  0  0
 20 21  1  0  0  0  0
 21 18  1  0  0  0  0
 22 23  1  0  0  0  0
 23 32  2  0  0  0  0
 24 25  2  0  0  0  0
 24 23  1  0  0  0  0
 25 26  1  0  0  0  0
 26 27  2  0  0  0  0
 28 27  1  0  0  0  0
 29 28  2  0  0  0  0
 30 25  1  0  0  0  0
 30 29  1  0  0  0  0
 31 30  2  0  0  0  0
 32 31  1  0  0  0  0
 33 16  1  0  0  0  0
M  END
> <ID>
SCHEMBL21167641

> <InChIKey>
PAZGSDDMNDHWKN-UHFFFAOYSA-N

> <MW>
443.515

> <Series_Name>
Series_11

$$$$
SCHEMBL21167645
  Mrv1719007231910592D 0   0.00000     0.00000     0

 32 36  0  0  0  0              1 V2000 
    7.3804   -4.4336    0.0000 N   0  0  0  0  0  0  0  0  0  0  0  0
   10.9505   -0.6054    0.0000 C   0  0  0  0  0  0  0  0  0  0  0  0
   10.4163   -0.0178    0.0000 C   0  0  0  0  0  0  0  0  0  0  0  0
    9.6329   -0.1959    0.0000 C   0  0  0  0  0  0  0  0  0  0  0  0
    9.4014   -1.0030    0.0000 C   0  0  0  0  0  0  0  0  0  0  0  0
    9.9474   -1.6203    0.0000 C   0  0  0  0  0  0  0  0  0  0  0  0
    8.5823   -1.2286    0.0000 C   0  0  0  0  0  0  0  0  0  0  0  0
    8.3212   -2.0180    0.0000 C   0  0  0  0  0  0  0  0  0  0  0  0
    9.7041   -2.4572    0.0000 C   0  0  0  0  0  0  0  0  0  0  0  0
    8.9206   -2.6530    0.0000 C   0  0  0  0  0  0  0  0  0  0  0  0
    7.5852   -2.2257    0.0000 C   0  0  0  0  0  0  0  0  0  0  0  0
    1.5313   -2.1189    0.0000 C   0  0  0  0  0  0  0  0  0  0  0  0
    0.9081   -1.7984    0.0000 C   0  0  0  0  0  0  0  0  0  0  0  0
    0.2137   -3.1160    0.0000 C   0  0  0  0  0  0  0  0  0  0  0  0
    0.8547   -3.4543    0.0000 C   0  0  0  0  0  0  0  0  0  0  0  0
    6.6059   -3.3237    0.0000 C   0  0  0  0  0  0  0  0  0  0  0  0
    5.1636   -3.3593    0.0000 C   0  0  0  0  0  0  0  0  0  0  0  0
    3.7748   -3.3950    0.0000 C   0  0  0  0  0  0  0  0  0  0  0  0
    2.3385   -3.4127    0.0000 C   0  0  0  0  0  0  0  0  0  0  0  0
    2.3503   -4.2556    0.0000 C   0  0  0  0  0  0  0  0  0  0  0  0
    3.0448   -4.6651    0.0000 C   0  0  0  0  0  0  0  0  0  0  0  0
    3.7748   -4.2200    0.0000 C   0  0  0  0  0  0  0  0  0  0  0  0
    6.5940   -4.1368    0.0000 C   0  0  0  0  0  0  0  0  0  0  0  0
    5.1636   -4.1843    0.0000 C   0  0  0  0  0  0  0  0  0  0  0  0
   10.7368   -1.4778    0.0000 N   0  0  0  0  0  0  0  0  0  0  0  0
    5.8937   -4.6384    0.0000 N   0  0  0  0  0  0  0  0  0  0  0  0
    7.3448   -3.0626    0.0000 N   0  0  0  0  0  0  0  0  0  0  0  0
    1.6292   -3.0626    0.0000 N   0  0  0  0  0  0  0  0  0  0  0  0
    3.0448   -3.0269    0.0000 N   0  0  0  0  0  0  0  0  0  0  0  0
    4.4514   -2.9913    0.0000 N   0  0  0  0  0  0  0  0  0  0  0  0
    5.8581   -2.9557    0.0000 N   0  0  0  0  0  0  0  0  0  0  0  0
    0.1959   -2.2791    0.0000 O   0  0  0  0  0  0  0  0  0  0  0  0
  2  3  1  0  0  0  0
  3  4  2  0  0  0  0
  4  5  1  0  0  0  0
  5  6  1  0  0  0  0
  5  7  2  0  0  0  0
  7  8  1  0  0  0  0
  6  9  2  0  0  0  0
  9 10  1  0  0  0  0
  8 10  2  0  0  0  0
  8 11  1  0  0  0  0
 12 13  1  0  0  0  0
 14 15  1  0  0  0  0
 19 20  1  0  0  0  0
 20 21  2  0  0  0  0
 21 22  1  0  0  0  0
 18 22  2  0  0  0  0
 16 23  1  0  0  0  0
  1 23  1  0  0  0  0
 17 24  2  0  0  0  0
  2 25  2  0  0  0  0
  6 25  1  0  0  0  0
 23 26  2  0  0  0  0
 24 26  1  0  0  0  0
 11 27  1  0  0  0  0
 16 27  1  0  0  0  0
 12 28  1  0  0  0  0
 15 28  1  0  0  0  0
 19 28  1  0  0  0  0
 18 29  1  0  0  0  0
 19 29  2  0  0  0  0
 17 30  1  0  0  0  0
 18 30  1  0  0  0  0
 16 31  2  0  0  0  0
 17 31  1  0  0  0  0
 13 32  1  0  0  0  0
 14 32  1  0  0  0  0
M  END
> <ID>
SCHEMBL21167645

> <InChIKey>
RSJBFKSJKRAZTM-UHFFFAOYSA-N

> <MW>
428.5

> <Series_Name>
Series_11

$$$$
SCHEMBL21167646
  Mrv1719007231910592D 0   0.00000     0.00000     0

 31 34  0  0  0  0              1 V2000 
    1.0059   -4.7066    0.0000 C   0  0  0  0  0  0  0  0  0  0  0  0
    1.0078   -3.8712    0.0000 C   0  0  0  0  0  0  0  0  0  0  0  0
    1.6920   -2.6149    0.0000 O   0  0  0  0  0  0  0  0  0  0  0  0
    1.7149   -3.4534    0.0000 C   0  0  0  0  0  0  0  0  0  0  0  0
    2.4301   -3.8648    0.0000 C   0  0  0  0  0  0  0  0  0  0  0  0
    3.1532   -3.2206    0.0000 N   0  0  0  0  0  0  0  0  0  0  0  0
    2.4227   -4.7107    0.0000 N   0  0  0  0  0  0  0  0  0  0  0  0
    1.7137   -5.1216    0.0000 C   0  0  0  0  0  0  0  0  0  0  0  0
    3.8709   -3.8665    0.0000 C   0  0  0  0  0  0  0  0  0  0  0  0
    3.8767   -4.7112    0.0000 C   0  0  0  0  0  0  0  0  0  0  0  0
    4.5953   -3.4609    0.0000 N   0  0  0  0  0  0  0  0  0  0  0  0
    4.5953   -5.1144    0.0000 N   0  0  0  0  0  0  0  0  0  0  0  0
    5.3125   -3.8694    0.0000 C   0  0  0  0  0  0  0  0  0  0  0  0
    6.0758   -3.6147    0.0000 N   0  0  0  0  0  0  0  0  0  0  0  0
    5.3104   -4.7091    0.0000 C   0  0  0  0  0  0  0  0  0  0  0  0
    6.0758   -4.9606    0.0000 N   0  0  0  0  0  0  0  0  0  0  0  0
    7.4722   -1.8414    0.0000 C   0  0  0  0  0  0  0  0  0  0  0  0
    7.1554   -2.6624    0.0000 C   0  0  0  0  0  0  0  0  0  0  0  0
    8.2702   -1.6787    0.0000 C   0  0  0  0  0  0  0  0  0  0  0  0
    8.4977   -0.8886    0.0000 C   0  0  0  0  0  0  0  0  0  0  0  0
    9.3110   -0.7171    0.0000 C   0  0  0  0  0  0  0  0  0  0  0  0
    9.8527   -1.3207    0.0000 C   0  0  0  0  0  0  0  0  0  0  0  0
    9.6136   -2.1342    0.0000 N   0  0  0  0  0  0  0  0  0  0  0  0
    8.8099   -2.3034    0.0000 C   0  0  0  0  0  0  0  0  0  0  0  0
    8.5441   -3.0863    0.0000 C   0  0  0  0  0  0  0  0  0  0  0  0
    7.7197   -3.2585    0.0000 C   0  0  0  0  0  0  0  0  0  0  0  0
    6.3709   -2.8327    0.0000 C   0  0  0  0  0  0  0  0  0  0  0  0
    1.0119   -1.3706    0.0000 C   0  0  0  0  0  0  0  0  0  0  0  0
    0.2692   -0.9614    0.0000 O   0  0  0  0  0  0  0  0  0  0  0  0
    1.0142   -2.1900    0.0000 C   0  0  0  0  0  0  0  0  0  0  0  0
    0.2960   -0.1058    0.0000 C   0  0  0  0  0  0  0  0  0  0  0  0
  1  2  2  0  0  0  0
  1  8  1  0  0  0  0
  2  4  1  0  0  0  0
  3  4  1  0  0  0  0
  4  5  2  0  0  0  0
  5  6  1  0  0  0  0
  6  9  1  0  0  0  0
  7  5  1  0  0  0  0
  8  7  2  0  0  0  0
  9 10  2  0  0  0  0
  9 11  1  0  0  0  0
 10 12  1  0  0  0  0
 11 13  2  0  0  0  0
 12 15  2  0  0  0  0
 13 14  1  0  0  0  0
 15 13  1  0  0  0  0
 15 16  1  0  0  0  0
 17 18  1  0  0  0  0
 17 19  2  0  0  0  0
 18 26  2  0  0  0  0
 19 20  1  0  0  0  0
 20 21  2  0  0  0  0
 22 21  1  0  0  0  0
 23 22  2  0  0  0  0
 24 19  1  0  0  0  0
 24 23  1  0  0  0  0
 25 24  2  0  0  0  0
 26 25  1  0  0  0  0
 27 18  1  0  0  0  0
 27 14  1  0  0  0  0
 28 29  1  0  0  0  0
 28 30  1  0  0  0  0
 30  3  1  0  0  0  0
 31 29  1  0  0  0  0
M  END
> <ID>
SCHEMBL21167646

> <InChIKey>
DMPIYVPYHBESKK-UHFFFAOYSA-N

> <MW>
417.473

> <Series_Name>
Series_11

$$$$
SCHEMBL21167665
  Mrv1719007231911002D 0   0.00000     0.00000     0

 28 31  0  0  0  0              1 V2000 
    0.8040   -2.8795    0.0000 O   0  0  0  0  0  0  0  0  0  0  0  0
    1.5251   -3.3020    0.0000 C   0  0  0  0  0  0  0  0  0  0  0  0
    2.2251   -2.8609    0.0000 N   0  0  0  0  0  0  0  0  0  0  0  0
    1.5322   -4.1156    0.0000 C   0  0  0  0  0  0  0  0  0  0  0  0
    2.9455   -3.2969    0.0000 C   0  0  0  0  0  0  0  0  0  0  0  0
    3.6462   -2.6271    0.0000 N   0  0  0  0  0  0  0  0  0  0  0  0
    2.9485   -4.1288    0.0000 C   0  0  0  0  0  0  0  0  0  0  0  0
    2.2418   -4.5407    0.0000 C   0  0  0  0  0  0  0  0  0  0  0  0
    4.3766   -3.2914    0.0000 C   0  0  0  0  0  0  0  0  0  0  0  0
    4.3806   -4.1132    0.0000 C   0  0  0  0  0  0  0  0  0  0  0  0
    5.0673   -2.8609    0.0000 N   0  0  0  0  0  0  0  0  0  0  0  0
    5.0673   -4.5251    0.0000 N   0  0  0  0  0  0  0  0  0  0  0  0
    5.7891   -4.1256    0.0000 C   0  0  0  0  0  0  0  0  0  0  0  0
    5.7874   -3.2922    0.0000 C   0  0  0  0  0  0  0  0  0  0  0  0
    6.5632   -3.0479    0.0000 N   0  0  0  0  0  0  0  0  0  0  0  0
    6.5632   -4.3754    0.0000 N   0  0  0  0  0  0  0  0  0  0  0  0
    6.8230   -2.2251    0.0000 C   0  0  0  0  0  0  0  0  0  0  0  0
    7.6291   -2.0668    0.0000 C   0  0  0  0  0  0  0  0  0  0  0  0
    7.9094   -1.2479    0.0000 C   0  0  0  0  0  0  0  0  0  0  0  0
    8.6893   -1.0767    0.0000 C   0  0  0  0  0  0  0  0  0  0  0  0
    9.7473   -0.1219    0.0000 C   0  0  0  0  0  0  0  0  0  0  0  0
   10.2582   -0.7955    0.0000 C   0  0  0  0  0  0  0  0  0  0  0  0
   10.0224   -1.5520    0.0000 N   0  0  0  0  0  0  0  0  0  0  0  0
    8.9473   -0.2931    0.0000 C   0  0  0  0  0  0  0  0  0  0  0  0
    9.2124   -1.7188    0.0000 C   0  0  0  0  0  0  0  0  0  0  0  0
    8.1650   -2.6622    0.0000 C   0  0  0  0  0  0  0  0  0  0  0  0
    8.9777   -2.5010    0.0000 C   0  0  0  0  0  0  0  0  0  0  0  0
    0.1378   -3.2910    0.0000 C   0  0  0  0  0  0  0  0  0  0  0  0
  1  2  1  0  0  0  0
  2  3  1  0  0  0  0
  2  4  2  0  0  0  0
  3  5  2  0  0  0  0
  4  8  1  0  0  0  0
  5  6  1  0  0  0  0
  6  9  1  0  0  0  0
  7  5  1  0  0  0  0
  8  7  2  0  0  0  0
  9 10  2  0  0  0  0
  9 11  1  0  0  0  0
 10 12  1  0  0  0  0
 11 14  2  0  0  0  0
 12 13  2  0  0  0  0
 13 14  1  0  0  0  0
 13 16  1  0  0  0  0
 14 15  1  0  0  0  0
 17 18  1  0  0  0  0
 17 15  1  0  0  0  0
 18 26  2  0  0  0  0
 19 20  2  0  0  0  0
 19 18  1  0  0  0  0
 20 24  1  0  0  0  0
 21 22  1  0  0  0  0
 23 22  2  0  0  0  0
 24 21  2  0  0  0  0
 25 20  1  0  0  0  0
 25 23  1  0  0  0  0
 26 27  1  0  0  0  0
 27 25  2  0  0  0  0
 28  1  1  0  0  0  0
M  END
> <ID>
SCHEMBL21167665

> <InChIKey>
FKKATGHHDNOIRN-UHFFFAOYSA-N

> <MW>
373.42

> <Series_Name>
Series_11

$$$$
SCHEMBL21167674
  Mrv1719007231911002D 0   0.00000     0.00000     0

 28 31  0  0  0  0              1 V2000 
    0.1277   -2.3955    0.0000 C   0  0  0  0  0  0  0  0  0  0  0  0
    0.8062   -1.9709    0.0000 N   0  0  0  0  0  0  0  0  0  0  0  0
    0.1205   -3.2595    0.0000 C   0  0  0  0  0  0  0  0  0  0  0  0
    0.8431   -3.7043    0.0000 C   0  0  0  0  0  0  0  0  0  0  0  0
    1.5252   -3.2754    0.0000 C   0  0  0  0  0  0  0  0  0  0  0  0
    1.5352   -2.3891    0.0000 C   0  0  0  0  0  0  0  0  0  0  0  0
    2.2216   -1.7290    0.0000 N   0  0  0  0  0  0  0  0  0  0  0  0
    0.9456   -4.2403    0.0000 C   0  0  0  0  0  0  0  0  0  0  0  0
    1.0481   -4.7762    0.0000 N   0  0  0  0  0  0  0  0  0  0  0  0
    2.8409   -2.3298    0.0000 C   0  0  0  0  0  0  0  0  0  0  0  0
    3.4580   -1.9709    0.0000 N   0  0  0  0  0  0  0  0  0  0  0  0
    2.8510   -3.0688    0.0000 C   0  0  0  0  0  0  0  0  0  0  0  0
    3.4580   -3.4580    0.0000 N   0  0  0  0  0  0  0  0  0  0  0  0
    4.0356   -2.3761    0.0000 C   0  0  0  0  0  0  0  0  0  0  0  0
    4.0928   -3.0810    0.0000 C   0  0  0  0  0  0  0  0  0  0  0  0
    4.7479   -2.1141    0.0000 N   0  0  0  0  0  0  0  0  0  0  0  0
    4.7479   -3.3146    0.0000 N   0  0  0  0  0  0  0  0  0  0  0  0
    6.3901   -1.7549    0.0000 C   0  0  0  0  0  0  0  0  0  0  0  0
    7.1941   -1.5817    0.0000 C   0  0  0  0  0  0  0  0  0  0  0  0
    5.8175   -1.0910    0.0000 C   0  0  0  0  0  0  0  0  0  0  0  0
    5.0168   -1.2901    0.0000 C   0  0  0  0  0  0  0  0  0  0  0  0
    6.1183   -0.2774    0.0000 C   0  0  0  0  0  0  0  0  0  0  0  0
    6.9036   -0.1154    0.0000 C   0  0  0  0  0  0  0  0  0  0  0  0
    7.4282   -0.7434    0.0000 C   0  0  0  0  0  0  0  0  0  0  0  0
    8.2237   -0.5734    0.0000 N   0  0  0  0  0  0  0  0  0  0  0  0
    7.7487   -2.2190    0.0000 C   0  0  0  0  0  0  0  0  0  0  0  0
    8.5523   -2.0104    0.0000 C   0  0  0  0  0  0  0  0  0  0  0  0
    8.7980   -1.2228    0.0000 C   0  0  0  0  0  0  0  0  0  0  0  0
  1  2  1  0  0  0  0
  2  6  2  0  0  0  0
  3  1  2  0  0  0  0
  3  4  1  0  0  0  0
  4  5  2  0  0  0  0
  6  5  1  0  0  0  0
  6  7  1  0  0  0  0
  7 10  1  0  0  0  0
  8  9  3  0  0  0  0
  8  4  1  0  0  0  0
 10 11  1  0  0  0  0
 10 12  2  0  0  0  0
 11 14  2  0  0  0  0
 12 13  1  0  0  0  0
 13 15  2  0  0  0  0
 14 15  1  0  0  0  0
 14 16  1  0  0  0  0
 15 17  1  0  0  0  0
 18 19  1  0  0  0  0
 19 24  2  0  0  0  0
 19 26  1  0  0  0  0
 20 18  2  0  0  0  0
 20 22  1  0  0  0  0
 21 20  1  0  0  0  0
 21 16  1  0  0  0  0
 22 23  2  0  0  0  0
 24 25  1  0  0  0  0
 24 23  1  0  0  0  0
 25 28  2  0  0  0  0
 26 27  2  0  0  0  0
 28 27  1  0  0  0  0
M  END
> <ID>
SCHEMBL21167674

> <InChIKey>
AEDGUSRJOUIOSP-UHFFFAOYSA-N

> <MW>
368.404

> <Series_Name>
Series_11

$$$$
SCHEMBL21167721
  Mrv1719007231911042D 0   0.00000     0.00000     0

 31 34  0  0  0  0              1 V2000 
    3.6398   -4.1117    0.0000 C   0  0  0  0  0  0  0  0  0  0  0  0
    4.3432   -4.5132    0.0000 C   0  0  0  0  0  0  0  0  0  0  0  0
    3.6316   -3.2662    0.0000 C   0  0  0  0  0  0  0  0  0  0  0  0
    2.9073   -2.8538    0.0000 O   0  0  0  0  0  0  0  0  0  0  0  0
    4.3610   -2.8615    0.0000 C   0  0  0  0  0  0  0  0  0  0  0  0
    5.0259   -3.2790    0.0000 C   0  0  0  0  0  0  0  0  0  0  0  0
    5.7255   -2.6130    0.0000 N   0  0  0  0  0  0  0  0  0  0  0  0
    5.0298   -4.1024    0.0000 N   0  0  0  0  0  0  0  0  0  0  0  0
    6.4676   -3.2897    0.0000 C   0  0  0  0  0  0  0  0  0  0  0  0
    7.1524   -2.8538    0.0000 N   0  0  0  0  0  0  0  0  0  0  0  0
    6.4769   -4.1062    0.0000 C   0  0  0  0  0  0  0  0  0  0  0  0
    7.1524   -4.5305    0.0000 N   0  0  0  0  0  0  0  0  0  0  0  0
    7.8733   -3.2844    0.0000 C   0  0  0  0  0  0  0  0  0  0  0  0
    8.6328   -3.0143    0.0000 N   0  0  0  0  0  0  0  0  0  0  0  0
    7.8797   -4.1102    0.0000 C   0  0  0  0  0  0  0  0  0  0  0  0
    8.6328   -4.3700    0.0000 N   0  0  0  0  0  0  0  0  0  0  0  0
    0.8026   -3.2641    0.0000 O   0  0  0  0  0  0  0  0  0  0  0  0
    1.5250   -2.8548    0.0000 C   0  0  0  0  0  0  0  0  0  0  0  0
    2.2344   -3.2794    0.0000 C   0  0  0  0  0  0  0  0  0  0  0  0
    0.1084   -2.8395    0.0000 C   0  0  0  0  0  0  0  0  0  0  0  0
    9.9525   -1.2619    0.0000 C   0  0  0  0  0  0  0  0  0  0  0  0
   10.7570   -1.0707    0.0000 C   0  0  0  0  0  0  0  0  0  0  0  0
   11.8220   -0.1159    0.0000 C   0  0  0  0  0  0  0  0  0  0  0  0
   12.3363   -0.7037    0.0000 C   0  0  0  0  0  0  0  0  0  0  0  0
   12.0753   -1.5340    0.0000 N   0  0  0  0  0  0  0  0  0  0  0  0
   11.0000   -0.2967    0.0000 C   0  0  0  0  0  0  0  0  0  0  0  0
   11.2835   -1.7059    0.0000 C   0  0  0  0  0  0  0  0  0  0  0  0
   11.0459   -2.5023    0.0000 C   0  0  0  0  0  0  0  0  0  0  0  0
   10.2284   -2.6671    0.0000 C   0  0  0  0  0  0  0  0  0  0  0  0
    8.9003   -2.2084    0.0000 C   0  0  0  0  0  0  0  0  0  0  0  0
    9.7010   -2.0459    0.0000 C   0  0  0  0  0  0  0  0  0  0  0  0
  1  2  1  0  0  0  0
  2  8  2  0  0  0  0
  3  1  2  0  0  0  0
  3  5  1  0  0  0  0
  4  3  1  0  0  0  0
  5  6  2  0  0  0  0
  6  7  1  0  0  0  0
  7  9  1  0  0  0  0
  8  6  1  0  0  0  0
  9 10  1  0  0  0  0
  9 11  2  0  0  0  0
 10 13  2  0  0  0  0
 11 12  1  0  0  0  0
 12 15  2  0  0  0  0
 13 14  1  0  0  0  0
 14 30  1  0  0  0  0
 15 13  1  0  0  0  0
 15 16  1  0  0  0  0
 17 18  1  0  0  0  0
 18 19  1  0  0  0  0
 19  4  1  0  0  0  0
 20 17  1  0  0  0  0
 21 22  2  0  0  0  0
 21 31  1  0  0  0  0
 22 26  1  0  0  0  0
 23 24  1  0  0  0  0
 25 24  2  0  0  0  0
 26 23  2  0  0  0  0
 27 25  1  0  0  0  0
 27 22  1  0  0  0  0
 28 27  2  0  0  0  0
 29 28  1  0  0  0  0
 30 31  1  0  0  0  0
 31 29  2  0  0  0  0
M  END
> <ID>
SCHEMBL21167721

> <InChIKey>
WADVIDRGGIIAOY-UHFFFAOYSA-N

> <MW>
417.473

> <Series_Name>
Series_11

$$$$
SCHEMBL21167725
  Mrv1719007231911052D 0   0.00000     0.00000     0

 28 31  0  0  0  0              1 V2000 
    0.1835   -0.0204    0.0000 C   0  0  0  0  0  0  0  0  0  0  0  0
    4.4757   -4.9956    0.0000 N   0  0  0  0  0  0  0  0  0  0  0  0
    8.2377   -1.3458    0.0000 C   0  0  0  0  0  0  0  0  0  0  0  0
    7.7076   -0.7137    0.0000 C   0  0  0  0  0  0  0  0  0  0  0  0
    6.9327   -0.8768    0.0000 C   0  0  0  0  0  0  0  0  0  0  0  0
    2.3041   -1.3050    0.0000 C   0  0  0  0  0  0  0  0  0  0  0  0
    1.6312   -0.8768    0.0000 C   0  0  0  0  0  0  0  0  0  0  0  0
    0.8768   -1.2778    0.0000 C   0  0  0  0  0  0  0  0  0  0  0  0
    0.8768   -2.1002    0.0000 C   0  0  0  0  0  0  0  0  0  0  0  0
    1.5904   -2.5420    0.0000 C   0  0  0  0  0  0  0  0  0  0  0  0
    7.1706   -2.3245    0.0000 C   0  0  0  0  0  0  0  0  0  0  0  0
    5.8317   -1.8555    0.0000 C   0  0  0  0  0  0  0  0  0  0  0  0
    6.8715   -3.1198    0.0000 C   0  0  0  0  0  0  0  0  0  0  0  0
    6.0967   -3.2625    0.0000 C   0  0  0  0  0  0  0  0  0  0  0  0
    4.7713   -2.7935    0.0000 C   0  0  0  0  0  0  0  0  0  0  0  0
    2.2837   -3.8266    0.0000 C   0  0  0  0  0  0  0  0  0  0  0  0
    3.6839   -3.8606    0.0000 C   0  0  0  0  0  0  0  0  0  0  0  0
    3.6907   -4.6762    0.0000 C   0  0  0  0  0  0  0  0  0  0  0  0
    2.2837   -4.6490    0.0000 C   0  0  0  0  0  0  0  0  0  0  0  0
    6.5861   -1.6720    0.0000 C   0  0  0  0  0  0  0  0  0  0  0  0
    5.5156   -2.6304    0.0000 C   0  0  0  0  0  0  0  0  0  0  0  0
    2.9668   -5.1180    0.0000 N   0  0  0  0  0  0  0  0  0  0  0  0
    2.3143   -2.1817    0.0000 N   0  0  0  0  0  0  0  0  0  0  0  0
    7.9829   -2.2021    0.0000 N   0  0  0  0  0  0  0  0  0  0  0  0
    4.4961   -3.6397    0.0000 N   0  0  0  0  0  0  0  0  0  0  0  0
    2.9872   -3.4562    0.0000 N   0  0  0  0  0  0  0  0  0  0  0  0
    1.3763   -3.4358    0.0000 N   0  0  0  0  0  0  0  0  0  0  0  0
    0.1937   -0.8666    0.0000 O   0  0  0  0  0  0  0  0  0  0  0  0
  3  4  1  0  0  0  0
  4  5  2  0  0  0  0
  6  7  1  0  0  0  0
  7  8  2  0  0  0  0
  8  9  1  0  0  0  0
  9 10  2  0  0  0  0
 11 13  2  0  0  0  0
 13 14  1  0  0  0  0
 17 18  1  0  0  0  0
  2 18  1  0  0  0  0
 16 19  2  0  0  0  0
  5 20  1  0  0  0  0
 11 20  1  0  0  0  0
 12 20  2  0  0  0  0
 12 21  1  0  0  0  0
 14 21  2  0  0  0  0
 15 21  1  0  0  0  0
 18 22  2  0  0  0  0
 19 22  1  0  0  0  0
  6 23  2  0  0  0  0
 10 23  1  0  0  0  0
  3 24  2  0  0  0  0
 11 24  1  0  0  0  0
 15 25  1  0  0  0  0
 17 25  1  0  0  0  0
 16 26  1  0  0  0  0
 17 26  2  0  0  0  0
 10 27  1  0  0  0  0
 16 27  1  0  0  0  0
  1 28  1  0  0  0  0
  8 28  1  0  0  0  0
M  END
> <ID>
SCHEMBL21167725

> <InChIKey>
DHEBASZXXDXHKN-UHFFFAOYSA-N

> <MW>
373.42

> <Series_Name>
Series_11

$$$$
SCHEMBL21167730
  Mrv1719007231911062D 0   0.00000     0.00000     0

 30 33  0  0  0  0              1 V2000 
    0.1865   -3.3299    0.0000 O   0  0  0  0  0  0  0  0  0  0  0  0
    7.9117   -4.4575    0.0000 N   0  0  0  0  0  0  0  0  0  0  0  0
   11.5434   -0.6216    0.0000 C   0  0  0  0  0  0  0  0  0  0  0  0
   11.0284   -0.0177    0.0000 C   0  0  0  0  0  0  0  0  0  0  0  0
   10.2648   -0.1598    0.0000 C   0  0  0  0  0  0  0  0  0  0  0  0
    9.9866   -0.9827    0.0000 C   0  0  0  0  0  0  0  0  0  0  0  0
   10.5075   -1.6398    0.0000 C   0  0  0  0  0  0  0  0  0  0  0  0
    9.2880   -1.1544    0.0000 C   0  0  0  0  0  0  0  0  0  0  0  0
    8.9565   -2.0068    0.0000 C   0  0  0  0  0  0  0  0  0  0  0  0
   10.2648   -2.4685    0.0000 C   0  0  0  0  0  0  0  0  0  0  0  0
    9.5544   -2.6639    0.0000 C   0  0  0  0  0  0  0  0  0  0  0  0
    8.1870   -2.1844    0.0000 C   0  0  0  0  0  0  0  0  0  0  0  0
    1.5628   -3.2854    0.0000 C   0  0  0  0  0  0  0  0  0  0  0  0
    0.9057   -2.8592    0.0000 C   0  0  0  0  0  0  0  0  0  0  0  0
    4.3510   -3.2795    0.0000 C   0  0  0  0  0  0  0  0  0  0  0  0
    3.6762   -2.8592    0.0000 C   0  0  0  0  0  0  0  0  0  0  0  0
    2.9480   -3.2795    0.0000 C   0  0  0  0  0  0  0  0  0  0  0  0
    5.7421   -3.2795    0.0000 C   0  0  0  0  0  0  0  0  0  0  0  0
    5.7539   -4.1734    0.0000 C   0  0  0  0  0  0  0  0  0  0  0  0
    7.1333   -3.2914    0.0000 C   0  0  0  0  0  0  0  0  0  0  0  0
    7.1391   -4.1615    0.0000 C   0  0  0  0  0  0  0  0  0  0  0  0
    2.9836   -4.1911    0.0000 C   0  0  0  0  0  0  0  0  0  0  0  0
    3.6406   -4.5996    0.0000 C   0  0  0  0  0  0  0  0  0  0  0  0
    6.4465   -4.6173    0.0000 N   0  0  0  0  0  0  0  0  0  0  0  0
    4.3510   -4.1911    0.0000 N   0  0  0  0  0  0  0  0  0  0  0  0
    7.9117   -3.0546    0.0000 N   0  0  0  0  0  0  0  0  0  0  0  0
   11.3125   -1.5095    0.0000 N   0  0  0  0  0  0  0  0  0  0  0  0
    6.4465   -2.8947    0.0000 N   0  0  0  0  0  0  0  0  0  0  0  0
    2.2554   -2.8947    0.0000 N   0  0  0  0  0  0  0  0  0  0  0  0
    5.0525   -2.8947    0.0000 N   0  0  0  0  0  0  0  0  0  0  0  0
  3  4  1  0  0  0  0
  4  5  2  0  0  0  0
  5  6  1  0  0  0  0
  6  7  1  0  0  0  0
  6  8  2  0  0  0  0
  8  9  1  0  0  0  0
  7 10  2  0  0  0  0
 10 11  1  0  0  0  0
  9 11  2  0  0  0  0
  9 12  1  0  0  0  0
 13 14  1  0  0  0  0
  1 14  1  0  0  0  0
 15 16  2  0  0  0  0
 16 17  1  0  0  0  0
 18 19  2  0  0  0  0
 20 21  1  0  0  0  0
  2 21  1  0  0  0  0
 17 22  2  0  0  0  0
 22 23  1  0  0  0  0
 19 24  1  0  0  0  0
 21 24  2  0  0  0  0
 15 25  1  0  0  0  0
 23 25  2  0  0  0  0
 12 26  1  0  0  0  0
 20 26  1  0  0  0  0
  3 27  2  0  0  0  0
  7 27  1  0  0  0  0
 18 28  1  0  0  0  0
 20 28  2  0  0  0  0
 13 29  1  0  0  0  0
 17 29  1  0  0  0  0
 15 30  1  0  0  0  0
 18 30  1  0  0  0  0
M  END
> <ID>
SCHEMBL21167730

> <InChIKey>
LYVXXOKGBUHFQD-UHFFFAOYSA-N

> <MW>
402.462

> <Series_Name>
Series_11

$$$$
SCHEMBL21167732
  Mrv1719007231911062D 0   0.00000     0.00000     0

 31 35  0  0  0  0              1 V2000 
    3.0334   -3.3678    0.0000 C   0  0  0  0  0  0  0  0  0  0  0  0
    3.0460   -4.2555    0.0000 C   0  0  0  0  0  0  0  0  0  0  0  0
    2.3225   -2.9608    0.0000 N   0  0  0  0  0  0  0  0  0  0  0  0
    3.7463   -2.9467    0.0000 C   0  0  0  0  0  0  0  0  0  0  0  0
    4.4408   -3.3718    0.0000 C   0  0  0  0  0  0  0  0  0  0  0  0
    5.1237   -2.6948    0.0000 N   0  0  0  0  0  0  0  0  0  0  0  0
    4.4145   -4.2550    0.0000 N   0  0  0  0  0  0  0  0  0  0  0  0
    3.7420   -4.6933    0.0000 C   0  0  0  0  0  0  0  0  0  0  0  0
    5.8388   -3.3760    0.0000 C   0  0  0  0  0  0  0  0  0  0  0  0
    6.5065   -2.9608    0.0000 N   0  0  0  0  0  0  0  0  0  0  0  0
    5.8637   -4.2760    0.0000 C   0  0  0  0  0  0  0  0  0  0  0  0
    6.5065   -4.6804    0.0000 N   0  0  0  0  0  0  0  0  0  0  0  0
    7.2264   -4.2655    0.0000 C   0  0  0  0  0  0  0  0  0  0  0  0
    7.2277   -3.3715    0.0000 C   0  0  0  0  0  0  0  0  0  0  0  0
    7.9780   -3.1203    0.0000 N   0  0  0  0  0  0  0  0  0  0  0  0
    7.9780   -4.5209    0.0000 N   0  0  0  0  0  0  0  0  0  0  0  0
    8.4567   -3.8295    0.0000 N   0  0  0  0  0  0  0  0  0  0  0  0
    0.2659   -3.4039    0.0000 O   0  0  0  0  0  0  0  0  0  0  0  0
    0.9803   -2.9382    0.0000 C   0  0  0  0  0  0  0  0  0  0  0  0
    1.6604   -3.3720    0.0000 C   0  0  0  0  0  0  0  0  0  0  0  0
    8.2588   -2.2904    0.0000 C   0  0  0  0  0  0  0  0  0  0  0  0
    9.0364   -2.0991    0.0000 C   0  0  0  0  0  0  0  0  0  0  0  0
   10.0687   -1.1139    0.0000 C   0  0  0  0  0  0  0  0  0  0  0  0
   10.3448   -0.2563    0.0000 C   0  0  0  0  0  0  0  0  0  0  0  0
   11.0966   -0.1020    0.0000 C   0  0  0  0  0  0  0  0  0  0  0  0
   11.6207   -0.7568    0.0000 C   0  0  0  0  0  0  0  0  0  0  0  0
   11.3643   -1.5779    0.0000 N   0  0  0  0  0  0  0  0  0  0  0  0
   10.5954   -1.7306    0.0000 C   0  0  0  0  0  0  0  0  0  0  0  0
   10.3371   -2.5635    0.0000 C   0  0  0  0  0  0  0  0  0  0  0  0
    9.2805   -1.2918    0.0000 C   0  0  0  0  0  0  0  0  0  0  0  0
    9.5345   -2.7543    0.0000 C   0  0  0  0  0  0  0  0  0  0  0  0
  1  2  2  0  0  0  0
  1  4  1  0  0  0  0
  2  8  1  0  0  0  0
  3  1  1  0  0  0  0
  3 20  1  0  0  0  0
  4  5  2  0  0  0  0
  5  6  1  0  0  0  0
  6  9  1  0  0  0  0
  7  5  1  0  0  0  0
  8  7  2  0  0  0  0
  9 10  1  0  0  0  0
  9 11  2  0  0  0  0
 10 14  2  0  0  0  0
 11 12  1  0  0  0  0
 12 13  2  0  0  0  0
 13 14  1  0  0  0  0
 13 16  1  0  0  0  0
 14 15  1  0  0  0  0
 15 17  1  0  0  0  0
 17 16  1  0  0  0  0
 18 19  1  0  0  0  0
 19 20  1  0  0  0  0
 21 22  1  0  0  0  0
 21 15  1  0  0  0  0
 22 30  1  0  0  0  0
 22 31  2  0  0  0  0
 23 24  1  0  0  0  0
 23 28  1  0  0  0  0
 24 25  2  0  0  0  0
 26 25  1  0  0  0  0
 27 26  2  0  0  0  0
 28 27  1  0  0  0  0
 29 28  2  0  0  0  0
 30 23  2  0  0  0  0
 31 29  1  0  0  0  0
M  END
> <ID>
SCHEMBL21167732

> <InChIKey>
PVVFSDRLZSXCSI-UHFFFAOYSA-N

> <MW>
415.461

> <Series_Name>
Series_11

$$$$
SCHEMBL21167734
  Mrv1719007231911062D 0   0.00000     0.00000     0

 30 33  0  0  0  0              1 V2000 
    1.4610   -3.2854    0.0000 C   0  0  0  0  0  0  0  0  0  0  0  0
    1.4668   -2.4067    0.0000 C   0  0  0  0  0  0  0  0  0  0  0  0
    0.9546   -2.1953    0.0000 C   0  0  0  0  0  0  0  0  0  0  0  0
    0.4053   -2.2684    0.0000 F   0  0  0  0  0  0  0  0  0  0  0  0
    0.7434   -2.7076    0.0000 F   0  0  0  0  0  0  0  0  0  0  0  0
    0.8816   -1.6461    0.0000 F   0  0  0  0  0  0  0  0  0  0  0  0
    2.1548   -1.9997    0.0000 N   0  0  0  0  0  0  0  0  0  0  0  0
    2.8732   -3.2954    0.0000 C   0  0  0  0  0  0  0  0  0  0  0  0
    2.8769   -2.4071    0.0000 C   0  0  0  0  0  0  0  0  0  0  0  0
    3.5655   -1.7439    0.0000 N   0  0  0  0  0  0  0  0  0  0  0  0
    2.1816   -3.7166    0.0000 C   0  0  0  0  0  0  0  0  0  0  0  0
    4.1738   -2.3523    0.0000 C   0  0  0  0  0  0  0  0  0  0  0  0
    4.1743   -3.0952    0.0000 C   0  0  0  0  0  0  0  0  0  0  0  0
    4.7591   -1.9997    0.0000 N   0  0  0  0  0  0  0  0  0  0  0  0
    4.7591   -3.4880    0.0000 N   0  0  0  0  0  0  0  0  0  0  0  0
    5.3715   -3.1032    0.0000 C   0  0  0  0  0  0  0  0  0  0  0  0
    5.3719   -2.3567    0.0000 C   0  0  0  0  0  0  0  0  0  0  0  0
    6.0303   -2.1393    0.0000 N   0  0  0  0  0  0  0  0  0  0  0  0
    6.0303   -3.3484    0.0000 N   0  0  0  0  0  0  0  0  0  0  0  0
    6.2764   -1.3409    0.0000 C   0  0  0  0  0  0  0  0  0  0  0  0
    7.0803   -1.1049    0.0000 C   0  0  0  0  0  0  0  0  0  0  0  0
    7.3279   -0.2860    0.0000 C   0  0  0  0  0  0  0  0  0  0  0  0
    8.1363   -0.1213    0.0000 C   0  0  0  0  0  0  0  0  0  0  0  0
    8.6564   -0.7365    0.0000 C   0  0  0  0  0  0  0  0  0  0  0  0
    9.4563   -0.5736    0.0000 N   0  0  0  0  0  0  0  0  0  0  0  0
    8.9468   -2.2415    0.0000 C   0  0  0  0  0  0  0  0  0  0  0  0
    9.7187   -2.0521    0.0000 C   0  0  0  0  0  0  0  0  0  0  0  0
    9.9756   -1.1944    0.0000 C   0  0  0  0  0  0  0  0  0  0  0  0
    8.4189   -1.5799    0.0000 C   0  0  0  0  0  0  0  0  0  0  0  0
    7.6150   -1.7570    0.0000 C   0  0  0  0  0  0  0  0  0  0  0  0
  1  2  2  0  0  0  0
  1 11  1  0  0  0  0
  2  3  1  0  0  0  0
  2  7  1  0  0  0  0
  3  4  1  0  0  0  0
  3  5  1  0  0  0  0
  3  6  1  0  0  0  0
  7  9  2  0  0  0  0
  8  9  1  0  0  0  0
  9 10  1  0  0  0  0
 10 12  1  0  0  0  0
 11  8  2  0  0  0  0
 12 13  2  0  0  0  0
 12 14  1  0  0  0  0
 13 15  1  0  0  0  0
 14 17  2  0  0  0  0
 15 16  2  0  0  0  0
 16 17  1  0  0  0  0
 16 19  1  0  0  0  0
 17 18  1  0  0  0  0
 20 21  1  0  0  0  0
 20 18  1  0  0  0  0
 21 30  2  0  0  0  0
 22 23  2  0  0  0  0
 22 21  1  0  0  0  0
 24 25  1  0  0  0  0
 24 23  1  0  0  0  0
 25 28  2  0  0  0  0
 26 27  2  0  0  0  0
 26 29  1  0  0  0  0
 28 27  1  0  0  0  0
 29 24  2  0  0  0  0
 30 29  1  0  0  0  0
M  END
> <ID>
SCHEMBL21167734

> <InChIKey>
NTXAEEOCGRWBJQ-UHFFFAOYSA-N

> <MW>
411.392

> <Series_Name>
Series_11

$$$$
SCHEMBL21167806
  Mrv1719007231911162D 0   0.00000     0.00000     0

 33 37  0  0  0  0              1 V2000 
    0.3695   -1.4518    0.0000 O   0  0  0  0  0  0  0  0  0  0  0  0
    7.6636   -3.7922    0.0000 N   0  0  0  0  0  0  0  0  0  0  0  0
   11.4382   -0.7215    0.0000 C   0  0  0  0  0  0  0  0  0  0  0  0
   11.0687   -0.0176    0.0000 C   0  0  0  0  0  0  0  0  0  0  0  0
   10.2944   -0.0176    0.0000 C   0  0  0  0  0  0  0  0  0  0  0  0
    9.8955   -0.7626    0.0000 C   0  0  0  0  0  0  0  0  0  0  0  0
   10.2709   -1.5310    0.0000 C   0  0  0  0  0  0  0  0  0  0  0  0
    9.1154   -0.7743    0.0000 C   0  0  0  0  0  0  0  0  0  0  0  0
    8.7283   -1.5192    0.0000 C   0  0  0  0  0  0  0  0  0  0  0  0
    9.8721   -2.2877    0.0000 C   0  0  0  0  0  0  0  0  0  0  0  0
    9.1154   -2.2877    0.0000 C   0  0  0  0  0  0  0  0  0  0  0  0
    7.9188   -1.5310    0.0000 C   0  0  0  0  0  0  0  0  0  0  0  0
    0.7215   -2.2583    0.0000 C   0  0  0  0  0  0  0  0  0  0  0  0
    4.1882   -2.6161    0.0000 C   0  0  0  0  0  0  0  0  0  0  0  0
    3.5194   -2.1996    0.0000 C   0  0  0  0  0  0  0  0  0  0  0  0
    2.8331   -2.6161    0.0000 C   0  0  0  0  0  0  0  0  0  0  0  0
    1.4430   -2.6161    0.0000 C   0  0  0  0  0  0  0  0  0  0  0  0
    0.2112   -2.9212    0.0000 C   0  0  0  0  0  0  0  0  0  0  0  0
    5.5255   -2.6161    0.0000 C   0  0  0  0  0  0  0  0  0  0  0  0
    6.9099   -2.6279    0.0000 C   0  0  0  0  0  0  0  0  0  0  0  0
    6.9157   -3.4901    0.0000 C   0  0  0  0  0  0  0  0  0  0  0  0
    1.3726   -3.4667    0.0000 C   0  0  0  0  0  0  0  0  0  0  0  0
    2.8684   -3.5194    0.0000 C   0  0  0  0  0  0  0  0  0  0  0  0
    3.4843   -3.9242    0.0000 C   0  0  0  0  0  0  0  0  0  0  0  0
    5.5255   -3.4667    0.0000 C   0  0  0  0  0  0  0  0  0  0  0  0
    4.8657   -2.1996    0.0000 N   0  0  0  0  0  0  0  0  0  0  0  0
    6.2470   -2.1996    0.0000 N   0  0  0  0  0  0  0  0  0  0  0  0
    6.2470   -3.9594    0.0000 N   0  0  0  0  0  0  0  0  0  0  0  0
    4.1882   -3.5282    0.0000 N   0  0  0  0  0  0  0  0  0  0  0  0
    0.5895   -3.6866    0.0000 O   0  0  0  0  0  0  0  0  0  0  0  0
    7.6636   -2.3844    0.0000 N   0  0  0  0  0  0  0  0  0  0  0  0
    2.1292   -2.2261    0.0000 N   0  0  0  0  0  0  0  0  0  0  0  0
   11.0687   -1.5486    0.0000 N   0  0  0  0  0  0  0  0  0  0  0  0
  3  4  1  0  0  0  0
  4  5  2  0  0  0  0
  5  6  1  0  0  0  0
  6  7  1  0  0  0  0
  6  8  2  0  0  0  0
  8  9  1  0  0  0  0
  7 10  2  0  0  0  0
 10 11  1  0  0  0  0
  9 11  2  0  0  0  0
  9 12  1  0  0  0  0
  1 13  1  0  0  0  0
 14 15  2  0  0  0  0
 15 16  1  0  0  0  0
 13 17  1  0  0  0  0
 13 18  1  0  0  0  0
 20 21  1  0  0  0  0
  2 21  1  0  0  0  0
 17 22  1  0  0  0  0
 16 23  2  0  0  0  0
 23 24  1  0  0  0  0
 19 25  2  0  0  0  0
 14 26  1  0  0  0  0
 19 26  1  0  0  0  0
 19 27  1  0  0  0  0
 20 27  2  0  0  0  0
 21 28  2  0  0  0  0
 25 28  1  0  0  0  0
 14 29  1  0  0  0  0
 24 29  2  0  0  0  0
 18 30  1  0  0  0  0
 22 30  1  0  0  0  0
 12 31  1  0  0  0  0
 20 31  1  0  0  0  0
 16 32  1  0  0  0  0
 17 32  1  0  0  0  0
  3 33  2  0  0  0  0
  7 33  1  0  0  0  0
M  END
> <ID>
SCHEMBL21167806

> <InChIKey>
TYJSVLNSYKPHSW-UHFFFAOYSA-N

> <MW>
444.499

> <Series_Name>
Series_11

$$$$
SCHEMBL21167808
  Mrv1719007231911162D 0   0.00000     0.00000     0

 33 37  0  0  0  0              1 V2000 
    5.5250   -3.6923    0.0000 N   0  0  0  0  0  0  0  0  0  0  0  0
    8.6513   -0.6468    0.0000 C   0  0  0  0  0  0  0  0  0  0  0  0
    8.0854   -0.0269    0.0000 C   0  0  0  0  0  0  0  0  0  0  0  0
    7.3307   -0.1886    0.0000 C   0  0  0  0  0  0  0  0  0  0  0  0
    7.0702   -0.9972    0.0000 C   0  0  0  0  0  0  0  0  0  0  0  0
    6.3335   -1.1589    0.0000 C   0  0  0  0  0  0  0  0  0  0  0  0
    7.2768   -2.4256    0.0000 C   0  0  0  0  0  0  0  0  0  0  0  0
    6.6030   -2.6142    0.0000 C   0  0  0  0  0  0  0  0  0  0  0  0
    5.2824   -2.1830    0.0000 C   0  0  0  0  0  0  0  0  0  0  0  0
    4.2493   -3.2701    0.0000 C   0  0  0  0  0  0  0  0  0  0  0  0
    1.4554   -3.3330    0.0000 C   0  0  0  0  0  0  0  0  0  0  0  0
    0.0269   -3.3959    0.0000 C   0  0  0  0  0  0  0  0  0  0  0  0
    0.0269   -4.2044    0.0000 C   0  0  0  0  0  0  0  0  0  0  0  0
    0.7366   -4.5727    0.0000 C   0  0  0  0  0  0  0  0  0  0  0  0
    4.2582   -4.1056    0.0000 C   0  0  0  0  0  0  0  0  0  0  0  0
    2.8568   -4.1505    0.0000 C   0  0  0  0  0  0  0  0  0  0  0  0
    1.4554   -4.1774    0.0000 C   0  0  0  0  0  0  0  0  0  0  0  0
    1.4823   -6.6300    0.0000 C   0  0  0  0  0  0  0  0  0  0  0  0
    1.4823   -5.8484    0.0000 C   0  0  0  0  0  0  0  0  0  0  0  0
    0.0539   -5.8484    0.0000 C   0  0  0  0  0  0  0  0  0  0  0  0
    0.0539   -6.6300    0.0000 C   0  0  0  0  0  0  0  0  0  0  0  0
    6.0236   -1.9944    0.0000 C   0  0  0  0  0  0  0  0  0  0  0  0
    7.6002   -1.6305    0.0000 C   0  0  0  0  0  0  0  0  0  0  0  0
    2.8299   -3.3015    0.0000 C   0  0  0  0  0  0  0  0  0  0  0  0
    0.7816   -7.1420    0.0000 O   0  0  0  0  0  0  0  0  0  0  0  0
    5.0668   -4.3661    0.0000 N   0  0  0  0  0  0  0  0  0  0  0  0
    5.0129   -3.0185    0.0000 N   0  0  0  0  0  0  0  0  0  0  0  0
    0.7008   -2.9647    0.0000 N   0  0  0  0  0  0  0  0  0  0  0  0
    2.1157   -2.9377    0.0000 N   0  0  0  0  0  0  0  0  0  0  0  0
    3.5306   -2.9107    0.0000 N   0  0  0  0  0  0  0  0  0  0  0  0
    8.4357   -1.4554    0.0000 N   0  0  0  0  0  0  0  0  0  0  0  0
    0.7546   -5.4711    0.0000 N   0  0  0  0  0  0  0  0  0  0  0  0
    3.5845   -4.5817    0.0000 N   0  0  0  0  0  0  0  0  0  0  0  0
  2  3  1  0  0  0  0
  3  4  2  0  0  0  0
  4  5  1  0  0  0  0
  5  6  2  0  0  0  0
  7  8  1  0  0  0  0
 12 13  1  0  0  0  0
 13 14  2  0  0  0  0
 10 15  1  0  0  0  0
 11 17  2  0  0  0  0
 14 17  1  0  0  0  0
 18 19  1  0  0  0  0
 20 21  1  0  0  0  0
  6 22  1  0  0  0  0
  8 22  2  0  0  0  0
  9 22  1  0  0  0  0
  5 23  1  0  0  0  0
  7 23  2  0  0  0  0
 16 24  2  0  0  0  0
 18 25  1  0  0  0  0
 21 25  1  0  0  0  0
  1 26  1  0  0  0  0
 15 26  1  0  0  0  0
  9 27  1  0  0  0  0
 10 27  1  0  0  0  0
 11 28  1  0  0  0  0
 12 28  2  0  0  0  0
 11 29  1  0  0  0  0
 24 29  1  0  0  0  0
 10 30  2  0  0  0  0
 24 30  1  0  0  0  0
  2 31  2  0  0  0  0
 23 31  1  0  0  0  0
 14 32  1  0  0  0  0
 19 32  1  0  0  0  0
 20 32  1  0  0  0  0
 15 33  2  0  0  0  0
 16 33  1  0  0  0  0
M  END
> <ID>
SCHEMBL21167808

> <InChIKey>
PKAXRTWQVPUFPX-UHFFFAOYSA-N

> <MW>
443.515

> <Series_Name>
Series_11

$$$$
SCHEMBL21167817
  Mrv1719007231911172D 0   0.00000     0.00000     0

 28 31  0  0  0  0              1 V2000 
    2.9684   -1.9168    0.0000 C   0  0  0  0  0  0  0  0  0  0  0  0
    0.0169   -2.7310    0.0000 C   0  0  0  0  0  0  0  0  0  0  0  0
    5.9708   -4.2576    0.0000 N   0  0  0  0  0  0  0  0  0  0  0  0
    9.8213   -0.6106    0.0000 C   0  0  0  0  0  0  0  0  0  0  0  0
    9.2616   -0.0169    0.0000 C   0  0  0  0  0  0  0  0  0  0  0  0
    8.4474   -0.1866    0.0000 C   0  0  0  0  0  0  0  0  0  0  0  0
    8.1816   -0.9669    0.0000 C   0  0  0  0  0  0  0  0  0  0  0  0
    7.3788   -1.1195    0.0000 C   0  0  0  0  0  0  0  0  0  0  0  0
    7.0395   -1.9224    0.0000 C   0  0  0  0  0  0  0  0  0  0  0  0
    8.7301   -1.5832    0.0000 C   0  0  0  0  0  0  0  0  0  0  0  0
    8.4474   -2.3748    0.0000 C   0  0  0  0  0  0  0  0  0  0  0  0
    7.6332   -2.5444    0.0000 C   0  0  0  0  0  0  0  0  0  0  0  0
    6.2423   -2.1034    0.0000 C   0  0  0  0  0  0  0  0  0  0  0  0
    0.7577   -3.1607    0.0000 C   0  0  0  0  0  0  0  0  0  0  0  0
    2.2164   -3.1607    0.0000 C   0  0  0  0  0  0  0  0  0  0  0  0
    2.2221   -3.9693    0.0000 C   0  0  0  0  0  0  0  0  0  0  0  0
    1.5097   -4.3764    0.0000 C   0  0  0  0  0  0  0  0  0  0  0  0
    0.7633   -3.9693    0.0000 C   0  0  0  0  0  0  0  0  0  0  0  0
    3.6979   -3.1494    0.0000 C   0  0  0  0  0  0  0  0  0  0  0  0
    5.1566   -3.1494    0.0000 C   0  0  0  0  0  0  0  0  0  0  0  0
    3.6979   -3.9523    0.0000 C   0  0  0  0  0  0  0  0  0  0  0  0
    5.1566   -3.9579    0.0000 C   0  0  0  0  0  0  0  0  0  0  0  0
    4.4357   -2.7649    0.0000 N   0  0  0  0  0  0  0  0  0  0  0  0
    2.9769   -2.7649    0.0000 N   0  0  0  0  0  0  0  0  0  0  0  0
    1.4842   -2.7649    0.0000 N   0  0  0  0  0  0  0  0  0  0  0  0
    4.4357   -4.4103    0.0000 N   0  0  0  0  0  0  0  0  0  0  0  0
    5.9708   -2.9260    0.0000 N   0  0  0  0  0  0  0  0  0  0  0  0
    9.5754   -1.4503    0.0000 N   0  0  0  0  0  0  0  0  0  0  0  0
  4  5  1  0  0  0  0
  5  6  2  0  0  0  0
  6  7  1  0  0  0  0
  7  8  2  0  0  0  0
  8  9  1  0  0  0  0
  7 10  1  0  0  0  0
 10 11  2  0  0  0  0
 11 12  1  0  0  0  0
  9 12  2  0  0  0  0
  9 13  1  0  0  0  0
  2 14  1  0  0  0  0
 15 16  1  0  0  0  0
 16 17  2  0  0  0  0
 17 18  1  0  0  0  0
 14 18  2  0  0  0  0
 19 21  2  0  0  0  0
 20 22  1  0  0  0  0
  3 22  1  0  0  0  0
 19 23  1  0  0  0  0
 20 23  2  0  0  0  0
  1 24  1  0  0  0  0
 15 24  1  0  0  0  0
 19 24  1  0  0  0  0
 14 25  1  0  0  0  0
 15 25  2  0  0  0  0
 21 26  1  0  0  0  0
 22 26  2  0  0  0  0
 13 27  1  0  0  0  0
 20 27  1  0  0  0  0
  4 28  2  0  0  0  0
 10 28  1  0  0  0  0
M  END
> <ID>
SCHEMBL21167817

> <InChIKey>
LOCITNGKSSXUDB-UHFFFAOYSA-N

> <MW>
371.448

> <Series_Name>
Series_11

$$$$
SCHEMBL21167824
  Mrv1719007231911182D 0   0.00000     0.00000     0

 28 31  0  0  0  0              1 V2000 
    6.2054   -3.7003    0.0000 N   0  0  0  0  0  0  0  0  0  0  0  0
   10.0695   -0.7204    0.0000 C   0  0  0  0  0  0  0  0  0  0  0  0
    9.6765   -0.0164    0.0000 C   0  0  0  0  0  0  0  0  0  0  0  0
    8.8743   -0.0164    0.0000 C   0  0  0  0  0  0  0  0  0  0  0  0
    8.4704   -0.7423    0.0000 C   0  0  0  0  0  0  0  0  0  0  0  0
    8.8688   -1.4900    0.0000 C   0  0  0  0  0  0  0  0  0  0  0  0
    7.6626   -0.7532    0.0000 C   0  0  0  0  0  0  0  0  0  0  0  0
    7.2588   -1.4900    0.0000 C   0  0  0  0  0  0  0  0  0  0  0  0
    6.4510   -1.4900    0.0000 C   0  0  0  0  0  0  0  0  0  0  0  0
    8.4322   -2.2267    0.0000 C   0  0  0  0  0  0  0  0  0  0  0  0
    7.6626   -2.2104    0.0000 C   0  0  0  0  0  0  0  0  0  0  0  0
    1.2444   -2.5706    0.0000 C   0  0  0  0  0  0  0  0  0  0  0  0
    1.2444   -3.4111    0.0000 C   0  0  0  0  0  0  0  0  0  0  0  0
    2.6470   -2.5597    0.0000 C   0  0  0  0  0  0  0  0  0  0  0  0
    2.5378   -3.4875    0.0000 C   0  0  0  0  0  0  0  0  0  0  0  0
    1.9321   -3.8313    0.0000 C   0  0  0  0  0  0  0  0  0  0  0  0
    4.0224   -2.5597    0.0000 C   0  0  0  0  0  0  0  0  0  0  0  0
    4.0278   -3.3893    0.0000 C   0  0  0  0  0  0  0  0  0  0  0  0
    5.4304   -2.5597    0.0000 C   0  0  0  0  0  0  0  0  0  0  0  0
    5.4359   -3.4111    0.0000 C   0  0  0  0  0  0  0  0  0  0  0  0
    4.7482   -3.8722    0.0000 N   0  0  0  0  0  0  0  0  0  0  0  0
    6.2054   -2.3250    0.0000 N   0  0  0  0  0  0  0  0  0  0  0  0
    3.3293   -2.1106    0.0000 N   0  0  0  0  0  0  0  0  0  0  0  0
    9.6765   -1.5063    0.0000 N   0  0  0  0  0  0  0  0  0  0  0  0
    4.7482   -2.1694    0.0000 N   0  0  0  0  0  0  0  0  0  0  0  0
    1.9484   -2.1694    0.0000 N   0  0  0  0  0  0  0  0  0  0  0  0
    0.7040   -3.7141    0.0000 C   0  0  0  0  0  0  0  0  0  0  0  0
    0.1636   -4.0171    0.0000 N   0  0  0  0  0  0  0  0  0  0  0  0
  2  3  1  0  0  0  0
  3  4  2  0  0  0  0
  4  5  1  0  0  0  0
  5  6  1  0  0  0  0
  5  7  2  0  0  0  0
  7  8  1  0  0  0  0
  8  9  1  0  0  0  0
  6 10  2  0  0  0  0
 10 11  1  0  0  0  0
  8 11  2  0  0  0  0
 12 13  2  0  0  0  0
 14 15  1  0  0  0  0
 15 16  2  0  0  0  0
 13 16  1  0  0  0  0
 17 18  2  0  0  0  0
 19 20  1  0  0  0  0
  1 20  1  0  0  0  0
 18 21  1  0  0  0  0
 20 21  2  0  0  0  0
  9 22  1  0  0  0  0
 19 22  1  0  0  0  0
 14 23  1  0  0  0  0
 17 23  1  0  0  0  0
  2 24  2  0  0  0  0
  6 24  1  0  0  0  0
 17 25  1  0  0  0  0
 19 25  2  0  0  0  0
 12 26  1  0  0  0  0
 14 26  2  0  0  0  0
 13 27  1  0  0  0  0
 27 28  3  0  0  0  0
M  END
> <ID>
SCHEMBL21167824

> <InChIKey>
VZZGAABRJPJWMI-UHFFFAOYSA-N

> <MW>
368.404

> <Series_Name>
Series_11

$$$$
SCHEMBL21167825
  Mrv1719007231911182D 0   0.00000     0.00000     0

 31 34  0  0  0  0              1 V2000 
    0.0000   -2.0583    0.0000 C   0  0  0  0  0  0  0  0  0  0  0  0
    9.1095   -3.5358    0.0000 N   0  0  0  0  0  0  0  0  0  0  0  0
   13.2465   -0.6725    0.0000 C   0  0  0  0  0  0  0  0  0  0  0  0
   12.8388   -0.0204    0.0000 C   0  0  0  0  0  0  0  0  0  0  0  0
   11.9829   -0.0204    0.0000 C   0  0  0  0  0  0  0  0  0  0  0  0
   11.5617   -0.7132    0.0000 C   0  0  0  0  0  0  0  0  0  0  0  0
   10.6786   -0.7132    0.0000 C   0  0  0  0  0  0  0  0  0  0  0  0
   10.2371   -1.4266    0.0000 C   0  0  0  0  0  0  0  0  0  0  0  0
   11.9762   -1.4266    0.0000 C   0  0  0  0  0  0  0  0  0  0  0  0
    9.3744   -1.4266    0.0000 C   0  0  0  0  0  0  0  0  0  0  0  0
   11.5549   -2.1194    0.0000 C   0  0  0  0  0  0  0  0  0  0  0  0
   10.6786   -2.1194    0.0000 C   0  0  0  0  0  0  0  0  0  0  0  0
    2.2621   -2.4251    0.0000 C   0  0  0  0  0  0  0  0  0  0  0  0
    1.5488   -2.0583    0.0000 C   0  0  0  0  0  0  0  0  0  0  0  0
    5.2442   -2.4184    0.0000 C   0  0  0  0  0  0  0  0  0  0  0  0
    5.2578   -3.2403    0.0000 C   0  0  0  0  0  0  0  0  0  0  0  0
    4.5038   -3.6683    0.0000 C   0  0  0  0  0  0  0  0  0  0  0  0
    3.7702   -3.2403    0.0000 C   0  0  0  0  0  0  0  0  0  0  0  0
    3.7566   -2.4184    0.0000 C   0  0  0  0  0  0  0  0  0  0  0  0
    6.7727   -2.4184    0.0000 C   0  0  0  0  0  0  0  0  0  0  0  0
    6.7863   -3.2403    0.0000 C   0  0  0  0  0  0  0  0  0  0  0  0
    8.2535   -2.4387    0.0000 C   0  0  0  0  0  0  0  0  0  0  0  0
    8.2535   -3.2471    0.0000 C   0  0  0  0  0  0  0  0  0  0  0  0
    9.1095   -2.2315    0.0000 N   0  0  0  0  0  0  0  0  0  0  0  0
   12.8388   -1.4775    0.0000 N   0  0  0  0  0  0  0  0  0  0  0  0
    7.5097   -3.6785    0.0000 N   0  0  0  0  0  0  0  0  0  0  0  0
    7.5097   -2.0787    0.0000 N   0  0  0  0  0  0  0  0  0  0  0  0
    6.0322   -2.0787    0.0000 N   0  0  0  0  0  0  0  0  0  0  0  0
    4.5038   -2.0787    0.0000 N   0  0  0  0  0  0  0  0  0  0  0  0
    3.0263   -2.0685    0.0000 O   0  0  0  0  0  0  0  0  0  0  0  0
    0.7744   -2.4659    0.0000 O   0  0  0  0  0  0  0  0  0  0  0  0
  3  4  1  0  0  0  0
  4  5  2  0  0  0  0
  5  6  1  0  0  0  0
  6  7  2  0  0  0  0
  7  8  1  0  0  0  0
  6  9  1  0  0  0  0
  8 10  1  0  0  0  0
  9 11  2  0  0  0  0
 11 12  1  0  0  0  0
  8 12  2  0  0  0  0
 13 14  1  0  0  0  0
 15 16  1  0  0  0  0
 16 17  2  0  0  0  0
 17 18  1  0  0  0  0
 18 19  2  0  0  0  0
 20 21  2  0  0  0  0
 22 23  1  0  0  0  0
  2 23  1  0  0  0  0
 10 24  1  0  0  0  0
 22 24  1  0  0  0  0
  3 25  2  0  0  0  0
  9 25  1  0  0  0  0
 21 26  1  0  0  0  0
 23 26  2  0  0  0  0
 20 27  1  0  0  0  0
 22 27  2  0  0  0  0
 15 28  1  0  0  0  0
 20 28  1  0  0  0  0
 15 29  2  0  0  0  0
 19 29  1  0  0  0  0
 13 30  1  0  0  0  0
 19 30  1  0  0  0  0
  1 31  1  0  0  0  0
 14 31  1  0  0  0  0
M  END
> <ID>
SCHEMBL21167825

> <InChIKey>
BOHIKQZVNSPKOJ-UHFFFAOYSA-N

> <MW>
417.473

> <Series_Name>
Series_11

$$$$
SCHEMBL21169009
  Mrv1719007231922312D 0   0.00000     0.00000     0

 36 40  0  0  0  0              1 V2000 
    3.5304   -0.1179    0.0000 F   0  0  0  0  0  0  0  0  0  0  0  0
    5.0133   -2.6059    0.0000 Cl  0  0  0  0  0  0  0  0  0  0  0  0
    0.0000   -3.3753    0.0000 C   0  0  0  0  0  0  0  0  0  0  0  0
    1.7124   -6.8375    0.0000 C   0  0  0  0  0  0  0  0  0  0  0  0
    1.8117   -7.0112    0.0000 C   0  0  0  0  0  0  0  0  0  0  0  0
    2.6431   -8.6306    0.0000 O   0  0  0  0  0  0  0  0  0  0  0  0
    3.5283   -2.6059    0.0000 C   0  0  0  0  0  0  0  0  0  0  0  0
    3.5283   -3.4332    0.0000 C   0  0  1  0  0  0  0  0  0  0  0  0
    3.5283   -0.9472    0.0000 C   0  0  0  0  0  0  0  0  0  0  0  0
    4.2481   -2.1881    0.0000 C   0  0  0  0  0  0  0  0  0  0  0  0
    4.2563   -1.3774    0.0000 C   0  0  0  0  0  0  0  0  0  0  0  0
    2.8169   -1.3650    0.0000 C   0  0  0  0  0  0  0  0  0  0  0  0
    2.8541   -2.2212    0.0000 C   0  0  0  0  0  0  0  0  0  0  0  0
    2.0971   -3.4291    0.0000 C   0  0  0  0  0  0  0  0  0  0  0  0
    1.9979   -2.6059    0.0000 C   0  0  0  0  0  0  0  0  0  0  0  0
    1.2037   -2.4446    0.0000 C   0  0  0  0  0  0  0  0  0  0  0  0
    2.8169   -3.8344    0.0000 C   0  0  0  0  0  0  0  0  0  0  0  0
    2.8169   -4.6700    0.0000 C   0  0  0  0  0  0  0  0  0  0  0  0
    4.2563   -4.6700    0.0000 C   0  0  0  0  0  0  0  0  0  0  0  0
    2.1096   -5.0877    0.0000 C   0  0  0  0  0  0  0  0  0  0  0  0
    4.9678   -5.0836    0.0000 C   0  0  0  0  0  0  0  0  0  0  0  0
    6.2666   -5.3608    0.0000 C   0  0  0  0  0  0  0  0  0  0  0  0
    5.8075   -6.0805    0.0000 C   0  0  0  0  0  0  0  0  0  0  0  0
    1.5181   -6.5024    0.0000 C   0  0  0  0  0  0  0  0  0  0  0  0
    2.1013   -6.7506    0.0000 C   0  0  0  0  0  0  0  0  0  0  0  0
    0.8314   -6.9119    0.0000 C   0  0  0  0  0  0  0  0  0  0  0  0
    1.3774   -7.1601    0.0000 C   0  0  0  0  0  0  0  0  0  0  0  0
    2.5067   -7.4579    0.0000 C   0  0  0  0  0  0  0  0  0  0  0  0
    1.9358   -8.0246    0.0000 C   0  0  0  0  0  0  0  0  0  0  0  0
    5.0568   -5.9130    0.0000 N   0  0  0  0  0  0  0  0  0  0  0  0
    2.1034   -5.9130    0.0000 N   0  0  0  0  0  0  0  0  0  0  0  0
    3.5428   -5.0816    0.0000 N   0  0  0  0  0  0  0  0  0  0  0  0
    4.2502   -3.8406    0.0000 N   0  0  0  0  0  0  0  0  0  0  0  0
    1.3464   -3.7662    0.0000 N   0  0  0  0  0  0  0  0  0  0  0  0
    0.8004   -3.1582    0.0000 N   0  0  0  0  0  0  0  0  0  0  0  0
    5.7206   -4.7590    0.0000 S   0  0  0  0  0  0  0  0  0  0  0  0
  1  9  1  0  0  0  0
  7 10  2  0  0  0  0
  2 10  1  0  0  0  0
 10 11  1  0  0  0  0
  9 11  2  0  0  0  0
  9 12  1  0  0  0  0
 12 13  2  0  0  0  0
  7 13  1  0  0  0  0
 14 15  1  0  0  0  0
 15 16  2  0  0  0  0
 14 17  1  0  0  0  0
  8 17  1  0  0  0  0
 17 18  2  0  0  0  0
 18 20  1  0  0  0  0
 19 21  1  0  0  0  0
 22 23  2  0  0  0  0
  4 24  1  0  0  0  0
 24 26  1  0  0  0  0
 25 27  1  0  0  0  0
 26 27  1  0  0  0  0
 25 28  1  0  0  0  0
 28 29  1  0  0  0  0
  6 29  1  0  0  0  0
  5 29  1  0  0  0  0
 21 30  2  0  0  0  0
 23 30  1  0  0  0  0
 20 31  1  0  0  0  0
 24 31  1  0  0  0  0
 25 31  1  0  0  0  0
 18 32  1  0  0  0  0
 19 32  1  0  0  0  0
  8 33  1  0  0  0  0
 19 33  2  0  0  0  0
 14 34  2  0  0  0  0
  3 35  1  0  0  0  0
 16 35  1  0  0  0  0
 34 35  1  0  0  0  0
 21 36  1  0  0  0  0
 22 36  1  0  0  0  0
  8  7  1  6  0  0  0
M  END
> <ID>
SCHEMBL21169009

> <InChIKey>
YLVGUQNAPKLLDP-QFWPPKASSA-N

> <MW>
529.08

> <Series_Name>
Series_4

$$$$
SCHEMBL21169739
  Mrv1719007241902132D 0   0.00000     0.00000     0

 47 50  0  0  0  0              1 V2000 
    9.3604   -0.2047    0.0000 O   0  0  0  0  0  0  0  0  0  0  0  0
    8.2293   -0.4973    0.0000 O   0  0  0  0  0  0  0  0  0  0  0  0
    6.7863   -0.4973    0.0000 O   0  0  0  0  0  0  0  0  0  0  0  0
    6.0745   -0.9068    0.0000 O   0  0  0  0  0  0  0  0  0  0  0  0
    7.5078   -0.9068    0.0000 O   0  0  0  0  0  0  0  0  0  0  0  0
   10.4914   -2.1451    0.0000 O   0  0  0  0  0  0  0  0  0  0  0  0
    9.6724   -2.9544    0.0000 O   0  0  0  0  0  0  0  0  0  0  0  0
    2.2914   -2.1548    0.0000 Cl  0  0  0  0  0  0  0  0  0  0  0  0
    8.2293   -4.5827    0.0000 C   0  0  0  0  0  0  0  0  0  0  0  0
    8.2293   -5.4309    0.0000 O   0  0  0  0  0  0  0  0  0  0  0  0
    7.5078   -5.7917    0.0000 C   0  0  0  0  0  0  0  0  0  0  0  0
    0.2341   -5.5967    0.0000 C   0  0  0  0  0  0  0  0  0  0  0  0
    1.6770   -5.8892    0.0000 C   0  0  0  0  0  0  0  0  0  0  0  0
    0.8678   -6.2305    0.0000 O   0  0  0  0  0  0  0  0  0  0  0  0
    6.7863   -1.2529    0.0000 C   0  0  0  0  0  0  0  0  0  0  0  0
    8.2684   -1.2480    0.0000 C   0  0  0  0  0  0  0  0  0  0  0  0
    8.2293   -2.0931    0.0000 C   0  0  0  0  0  0  0  0  0  0  0  0
    9.6626   -2.1110    0.0000 C   0  0  0  0  0  0  0  0  0  0  0  0
    1.7420   -3.3216    0.0000 C   0  0  0  0  0  0  0  0  0  0  0  0
    1.7551   -2.5351    0.0000 C   0  0  0  0  0  0  0  0  0  0  0  0
    0.9360   -2.1451    0.0000 C   0  0  0  0  0  0  0  0  0  0  0  0
    0.3120   -2.5157    0.0000 C   0  0  0  0  0  0  0  0  0  0  0  0
    0.3120   -3.3346    0.0000 C   0  0  0  0  0  0  0  0  0  0  0  0
    1.0336   -3.7377    0.0000 C   0  0  0  0  0  0  0  0  0  0  0  0
    3.9001   -2.1061    0.0000 C   0  0  0  0  0  0  0  0  0  0  0  0
    3.1982   -2.4960    0.0000 C   0  0  0  0  0  0  0  0  0  0  0  0
    3.1982   -3.3216    0.0000 C   0  0  0  0  0  0  0  0  0  0  0  0
    7.5078   -2.5091    0.0000 C   0  0  0  0  0  0  0  0  0  0  0  0
    6.0843   -2.5157    0.0000 C   0  0  0  0  0  0  0  0  0  0  0  0
    6.0843   -3.3216    0.0000 C   0  0  0  0  0  0  0  0  0  0  0  0
    8.9118   -2.5157    0.0000 C   0  0  0  0  0  0  0  0  0  0  0  0
    7.5078   -3.3346    0.0000 C   0  0  0  0  0  0  0  0  0  0  0  0
    6.7733   -3.7377    0.0000 C   0  0  0  0  0  0  0  0  0  0  0  0
    4.6217   -3.3411    0.0000 C   0  0  0  0  0  0  0  0  0  0  0  0
    1.0433   -5.4066    0.0000 C   0  0  0  0  0  0  0  0  0  0  0  0
    0.2047   -4.6022    0.0000 O   0  0  0  0  0  0  0  0  0  0  0  0
    1.8720   -4.6022    0.0000 O   0  0  0  0  0  0  0  0  0  0  0  0
    8.9281   -0.8515    0.0000 C   0  0  0  0  0  0  0  0  0  0  0  0
    6.7278   -2.1061    0.0000 C   0  0  0  0  0  0  0  0  0  0  0  0
    7.5338   -4.9760    0.0000 C   0  0  0  0  0  0  0  0  0  0  0  0
    4.6314   -2.5449    0.0000 N   0  0  0  0  0  0  0  0  0  0  0  0
    9.8771   -1.3163    0.0000 N   0  0  0  0  0  0  0  0  0  0  0  0
    2.4668   -3.7733    0.0000 N   0  0  0  0  0  0  0  0  0  0  0  0
    3.9197   -3.7733    0.0000 N   0  0  0  0  0  0  0  0  0  0  0  0
    5.3530   -3.7733    0.0000 N   0  0  0  0  0  0  0  0  0  0  0  0
    1.0336   -4.6022    0.0000 S   0  0  0  0  0  0  0  0  0  0  0  0
    6.7863   -4.6022    0.0000 O   0  0  0  0  0  0  0  0  0  0  0  0
  3 15  1  0  0  0  0
  5 15  1  0  0  0  0
  4 15  1  0  0  0  0
 16 17  1  0  0  0  0
  6 18  1  0  0  0  0
  7 18  1  0  0  0  0
 19 20  2  0  0  0  0
 20 21  1  0  0  0  0
 21 22  2  0  0  0  0
 22 23  1  0  0  0  0
 23 24  2  0  0  0  0
 19 24  1  0  0  0  0
 25 26  1  0  0  0  0
  8 26  1  0  0  0  0
 26 27  2  0  0  0  0
 17 28  1  0  0  0  0
 29 30  1  0  0  0  0
 17 31  1  0  0  0  0
 18 31  1  0  0  0  0
 28 32  2  0  0  0  0
 32 33  1  0  0  0  0
 30 33  2  0  0  0  0
 12 35  1  0  0  0  0
 13 35  1  0  0  0  0
 14 35  1  0  0  0  0
  1 38  1  0  0  0  0
  2 38  1  0  0  0  0
 16 38  1  0  0  0  0
 15 39  1  0  0  0  0
 28 39  1  0  0  0  0
 29 39  2  0  0  0  0
  9 40  1  0  0  0  0
 10 40  1  0  0  0  0
 11 40  1  0  0  0  0
 25 41  2  0  0  0  0
 34 41  1  0  0  0  0
 18 42  1  0  0  0  0
 38 42  1  0  0  0  0
 19 43  1  0  0  0  0
 27 43  1  0  0  0  0
 27 44  1  0  0  0  0
 34 44  2  0  0  0  0
 30 45  1  0  0  0  0
 34 45  1  0  0  0  0
 24 46  1  0  0  0  0
 35 46  1  0  0  0  0
 36 46  2  0  0  0  0
 37 46  2  0  0  0  0
 33 47  1  0  0  0  0
 40 47  1  0  0  0  0
M  END
> <ID>
SCHEMBL21169739

> <InChIKey>
IGDNKSAPAVEYRI-UHFFFAOYSA-N

> <MW>
702.13

> <Series_Name>
Series_7

$$$$
SCHEMBL21169740
  Mrv1719007241902142D 0   0.00000     0.00000     0

 39 42  0  0  0  0              1 V2000 
    6.4594    5.0509    0.0000 C   0  0  0  0  0  0  0  0  0  0  0  0
    2.0455    4.1896    0.0000 Cl  0  0  0  0  0  0  0  0  0  0  0  0
    7.8410    1.6956    0.0000 C   0  0  0  0  0  0  0  0  0  0  0  0
    7.1592    0.4396    0.0000 C   0  0  0  0  0  0  0  0  0  0  0  0
    0.0359    0.6549    0.0000 C   0  0  0  0  0  0  0  0  0  0  0  0
    1.4534    0.3498    0.0000 C   0  0  0  0  0  0  0  0  0  0  0  0
    0.8344    0.0000    0.0000 O   0  0  0  0  0  0  0  0  0  0  0  0
    8.5408    5.4636    0.0000 C   0  0  0  0  0  0  0  0  0  0  0  0
    7.8948    5.0868    0.0000 C   0  0  0  0  0  0  0  0  0  0  0  0
    7.8589    4.2196    0.0000 C   0  0  0  0  0  0  0  0  0  0  0  0
    6.4594    4.2196    0.0000 C   0  0  0  0  0  0  0  0  0  0  0  0
    9.2764    4.2255    0.0000 C   0  0  0  0  0  0  0  0  0  0  0  0
    8.5767    3.8128    0.0000 C   0  0  0  0  0  0  0  0  0  0  0  0
    7.1592    3.8009    0.0000 C   0  0  0  0  0  0  0  0  0  0  0  0
    1.5191    2.9635    0.0000 C   0  0  0  0  0  0  0  0  0  0  0  0
    1.5251    3.8128    0.0000 C   0  0  0  0  0  0  0  0  0  0  0  0
    0.8433    4.2076    0.0000 C   0  0  0  0  0  0  0  0  0  0  0  0
    0.1435    3.8308    0.0000 C   0  0  0  0  0  0  0  0  0  0  0  0
    0.1256    2.9516    0.0000 C   0  0  0  0  0  0  0  0  0  0  0  0
    0.8553    2.5688    0.0000 C   0  0  0  0  0  0  0  0  0  0  0  0
    3.6244    4.2076    0.0000 C   0  0  0  0  0  0  0  0  0  0  0  0
    2.9426    3.8009    0.0000 C   0  0  0  0  0  0  0  0  0  0  0  0
    5.7417    3.7949    0.0000 C   0  0  0  0  0  0  0  0  0  0  0  0
    5.7417    2.9635    0.0000 C   0  0  0  0  0  0  0  0  0  0  0  0
    2.9426    2.9635    0.0000 C   0  0  0  0  0  0  0  0  0  0  0  0
    7.1592    2.9695    0.0000 C   0  0  0  0  0  0  0  0  0  0  0  0
    6.4594    2.5449    0.0000 C   0  0  0  0  0  0  0  0  0  0  0  0
    4.3422    2.9635    0.0000 C   0  0  0  0  0  0  0  0  0  0  0  0
    7.1592    1.2710    0.0000 C   0  0  0  0  0  0  0  0  0  0  0  0
    0.8523    0.8298    0.0000 C   0  0  0  0  0  0  0  0  0  0  0  0
    1.6328    1.6776    0.0000 O   0  0  0  0  0  0  0  0  0  0  0  0
    0.0000    1.6776    0.0000 O   0  0  0  0  0  0  0  0  0  0  0  0
    0.8164    1.6776    0.0000 S   0  0  0  0  0  0  0  0  0  0  0  0
    6.4504    1.6776    0.0000 O   0  0  0  0  0  0  0  0  0  0  0  0
    2.2249    2.5299    0.0000 N   0  0  0  0  0  0  0  0  0  0  0  0
    5.0419    2.5299    0.0000 N   0  0  0  0  0  0  0  0  0  0  0  0
    3.6244    2.5120    0.0000 N   0  0  0  0  0  0  0  0  0  0  0  0
    9.4559    5.0599    0.0000 N   0  0  0  0  0  0  0  0  0  0  0  0
    4.3332    3.7859    0.0000 N   0  0  0  0  0  0  0  0  0  0  0  0
  8  9  1  0  0  0  0
  9 10  1  0  0  0  0
  1 11  1  0  0  0  0
 12 13  1  0  0  0  0
 10 13  1  0  0  0  0
 10 14  1  0  0  0  0
 11 14  1  0  0  0  0
 15 16  2  0  0  0  0
 16 17  1  0  0  0  0
 17 18  2  0  0  0  0
 18 19  1  0  0  0  0
 19 20  2  0  0  0  0
 15 20  1  0  0  0  0
 21 22  1  0  0  0  0
  2 22  1  0  0  0  0
 11 23  2  0  0  0  0
 23 24  1  0  0  0  0
 22 25  2  0  0  0  0
 14 26  2  0  0  0  0
 26 27  1  0  0  0  0
 24 27  2  0  0  0  0
  3 29  1  0  0  0  0
  4 29  1  0  0  0  0
  5 30  1  0  0  0  0
  6 30  1  0  0  0  0
  7 30  1  0  0  0  0
 20 33  1  0  0  0  0
 30 33  1  0  0  0  0
 31 33  2  0  0  0  0
 32 33  2  0  0  0  0
 27 34  1  0  0  0  0
 29 34  1  0  0  0  0
 15 35  1  0  0  0  0
 25 35  1  0  0  0  0
 24 36  1  0  0  0  0
 28 36  1  0  0  0  0
 25 37  1  0  0  0  0
 28 37  2  0  0  0  0
  8 38  1  0  0  0  0
 12 38  1  0  0  0  0
 21 39  2  0  0  0  0
 28 39  1  0  0  0  0
M  END
> <ID>
SCHEMBL21169740

> <InChIKey>
GFVQQCZQRISTER-UHFFFAOYSA-N

> <MW>
574.14

> <Series_Name>
Series_7

$$$$
SCHEMBL21169771
  Mrv1719007241902242D 0   0.00000     0.00000     0

 43 46  0  0  0  0              1 V2000 
    9.2995   -0.2060    0.0000 O   0  0  0  0  0  0  0  0  0  0  0  0
    8.1812   -0.5003    0.0000 O   0  0  0  0  0  0  0  0  0  0  0  0
    6.7490   -1.3145    0.0000 C   0  0  0  0  0  0  0  0  0  0  0  0
   10.4178   -2.1679    0.0000 O   0  0  0  0  0  0  0  0  0  0  0  0
    9.6134   -3.0116    0.0000 O   0  0  0  0  0  0  0  0  0  0  0  0
    2.2660   -2.1777    0.0000 Cl  0  0  0  0  0  0  0  0  0  0  0  0
    8.1420   -4.6694    0.0000 C   0  0  0  0  0  0  0  0  0  0  0  0
    7.4553   -5.9054    0.0000 C   0  0  0  0  0  0  0  0  0  0  0  0
    0.2354   -5.6896    0.0000 C   0  0  0  0  0  0  0  0  0  0  0  0
    1.0202   -6.3665    0.0000 O   0  0  0  0  0  0  0  0  0  0  0  0
    1.6480   -6.0035    0.0000 C   0  0  0  0  0  0  0  0  0  0  0  0
    8.8777   -0.8780    0.0000 C   0  0  0  0  0  0  0  0  0  0  0  0
    8.1812   -1.3145    0.0000 C   0  0  0  0  0  0  0  0  0  0  0  0
    8.1812   -2.1450    0.0000 C   0  0  0  0  0  0  0  0  0  0  0  0
    6.7490   -2.1254    0.0000 C   0  0  0  0  0  0  0  0  0  0  0  0
    9.6036   -2.1434    0.0000 C   0  0  0  0  0  0  0  0  0  0  0  0
    7.4553   -2.5636    0.0000 C   0  0  0  0  0  0  0  0  0  0  0  0
    6.0231   -2.5701    0.0000 C   0  0  0  0  0  0  0  0  0  0  0  0
    6.0231   -3.4007    0.0000 C   0  0  0  0  0  0  0  0  0  0  0  0
    1.7199   -3.4007    0.0000 C   0  0  0  0  0  0  0  0  0  0  0  0
    1.7461   -2.5897    0.0000 C   0  0  0  0  0  0  0  0  0  0  0  0
    1.0594   -2.1581    0.0000 C   0  0  0  0  0  0  0  0  0  0  0  0
    0.3139   -2.5701    0.0000 C   0  0  0  0  0  0  0  0  0  0  0  0
    0.3139   -3.3941    0.0000 C   0  0  0  0  0  0  0  0  0  0  0  0
    1.0202   -3.8192    0.0000 C   0  0  0  0  0  0  0  0  0  0  0  0
    3.8454   -2.1581    0.0000 C   0  0  0  0  0  0  0  0  0  0  0  0
    3.1783   -2.5505    0.0000 C   0  0  0  0  0  0  0  0  0  0  0  0
    3.1783   -3.4007    0.0000 C   0  0  0  0  0  0  0  0  0  0  0  0
    8.8875   -2.5701    0.0000 C   0  0  0  0  0  0  0  0  0  0  0  0
    7.4553   -3.3941    0.0000 C   0  0  0  0  0  0  0  0  0  0  0  0
    6.7359   -3.8061    0.0000 C   0  0  0  0  0  0  0  0  0  0  0  0
    4.5909   -3.4007    0.0000 C   0  0  0  0  0  0  0  0  0  0  0  0
    7.4422   -5.0748    0.0000 C   0  0  0  0  0  0  0  0  0  0  0  0
    1.0202   -5.5032    0.0000 C   0  0  0  0  0  0  0  0  0  0  0  0
    0.2060   -4.6792    0.0000 O   0  0  0  0  0  0  0  0  0  0  0  0
    1.8540   -4.6792    0.0000 O   0  0  0  0  0  0  0  0  0  0  0  0
    9.8096   -1.3439    0.0000 N   0  0  0  0  0  0  0  0  0  0  0  0
    6.7392   -4.6792    0.0000 O   0  0  0  0  0  0  0  0  0  0  0  0
    1.0006   -4.6792    0.0000 S   0  0  0  0  0  0  0  0  0  0  0  0
    5.3070   -3.8326    0.0000 N   0  0  0  0  0  0  0  0  0  0  0  0
    3.8748   -3.8552    0.0000 N   0  0  0  0  0  0  0  0  0  0  0  0
    2.4549   -3.8370    0.0000 N   0  0  0  0  0  0  0  0  0  0  0  0
    4.6007   -2.5897    0.0000 N   0  0  0  0  0  0  0  0  0  0  0  0
  1 12  1  0  0  0  0
  2 12  1  0  0  0  0
 12 13  1  0  0  0  0
 13 14  1  0  0  0  0
  3 15  1  0  0  0  0
  4 16  1  0  0  0  0
  5 16  1  0  0  0  0
 15 17  1  0  0  0  0
 14 17  1  0  0  0  0
 15 18  2  0  0  0  0
 18 19  1  0  0  0  0
 20 21  2  0  0  0  0
 21 22  1  0  0  0  0
 22 23  2  0  0  0  0
 23 24  1  0  0  0  0
 24 25  2  0  0  0  0
 20 25  1  0  0  0  0
 26 27  1  0  0  0  0
  6 27  1  0  0  0  0
 27 28  2  0  0  0  0
 16 29  1  0  0  0  0
 14 29  1  0  0  0  0
 17 30  2  0  0  0  0
 30 31  1  0  0  0  0
 19 31  2  0  0  0  0
  7 33  1  0  0  0  0
  8 33  1  0  0  0  0
  9 34  1  0  0  0  0
 10 34  1  0  0  0  0
 11 34  1  0  0  0  0
 12 37  1  0  0  0  0
 16 37  1  0  0  0  0
 31 38  1  0  0  0  0
 33 38  1  0  0  0  0
 25 39  1  0  0  0  0
 34 39  1  0  0  0  0
 35 39  2  0  0  0  0
 36 39  2  0  0  0  0
 19 40  1  0  0  0  0
 32 40  1  0  0  0  0
 28 41  1  0  0  0  0
 32 41  2  0  0  0  0
 20 42  1  0  0  0  0
 28 42  1  0  0  0  0
 26 43  2  0  0  0  0
 32 43  1  0  0  0  0
M  END
> <ID>
SCHEMBL21169771

> <InChIKey>
QMGCXFBAYUSOJN-UHFFFAOYSA-N

> <MW>
638.13

> <Series_Name>
Series_7

$$$$
SCHEMBL21169776
  Mrv1719007241902262D 0   0.00000     0.00000     0

 43 46  0  0  0  0              1 V2000 
    9.2563   -0.2046    0.0000 O   0  0  0  0  0  0  0  0  0  0  0  0
    8.1261   -0.7405    0.0000 O   0  0  0  0  0  0  0  0  0  0  0  0
    6.7814   -1.3641    0.0000 C   0  0  0  0  0  0  0  0  0  0  0  0
    7.5025   -1.8025    0.0000 O   0  0  0  0  0  0  0  0  0  0  0  0
   10.4840   -2.2215    0.0000 O   0  0  0  0  0  0  0  0  0  0  0  0
    9.6558   -3.0594    0.0000 O   0  0  0  0  0  0  0  0  0  0  0  0
    2.3092   -2.2312    0.0000 Cl  0  0  0  0  0  0  0  0  0  0  0  0
    8.1846   -4.7158    0.0000 C   0  0  0  0  0  0  0  0  0  0  0  0
    7.5025   -5.9240    0.0000 C   0  0  0  0  0  0  0  0  0  0  0  0
    0.2338   -5.7292    0.0000 C   0  0  0  0  0  0  0  0  0  0  0  0
    1.6564   -6.0215    0.0000 C   0  0  0  0  0  0  0  0  0  0  0  0
    8.9251   -0.9207    0.0000 C   0  0  0  0  0  0  0  0  0  0  0  0
    8.2235   -1.3446    0.0000 C   0  0  0  0  0  0  0  0  0  0  0  0
    8.1846   -2.1484    0.0000 C   0  0  0  0  0  0  0  0  0  0  0  0
    6.7814   -2.1695    0.0000 C   0  0  0  0  0  0  0  0  0  0  0  0
    9.6558   -2.1874    0.0000 C   0  0  0  0  0  0  0  0  0  0  0  0
    8.9251   -2.5918    0.0000 C   0  0  0  0  0  0  0  0  0  0  0  0
    7.5025   -2.6048    0.0000 C   0  0  0  0  0  0  0  0  0  0  0  0
    1.7538   -3.4362    0.0000 C   0  0  0  0  0  0  0  0  0  0  0  0
    1.7538   -2.6112    0.0000 C   0  0  0  0  0  0  0  0  0  0  0  0
    0.9548   -2.2020    0.0000 C   0  0  0  0  0  0  0  0  0  0  0  0
    0.3118   -2.6112    0.0000 C   0  0  0  0  0  0  0  0  0  0  0  0
    0.3118   -3.4297    0.0000 C   0  0  0  0  0  0  0  0  0  0  0  0
    1.0328   -3.8714    0.0000 C   0  0  0  0  0  0  0  0  0  0  0  0
    3.8779   -2.1825    0.0000 C   0  0  0  0  0  0  0  0  0  0  0  0
    3.1764   -2.6048    0.0000 C   0  0  0  0  0  0  0  0  0  0  0  0
    6.0799   -2.5918    0.0000 C   0  0  0  0  0  0  0  0  0  0  0  0
    6.0799   -3.4362    0.0000 C   0  0  0  0  0  0  0  0  0  0  0  0
    3.1764   -3.4362    0.0000 C   0  0  0  0  0  0  0  0  0  0  0  0
    7.5025   -3.4297    0.0000 C   0  0  0  0  0  0  0  0  0  0  0  0
    6.7814   -3.8714    0.0000 C   0  0  0  0  0  0  0  0  0  0  0  0
    4.6184   -3.4362    0.0000 C   0  0  0  0  0  0  0  0  0  0  0  0
    7.5025   -5.0991    0.0000 C   0  0  0  0  0  0  0  0  0  0  0  0
    1.0328   -5.5213    0.0000 C   0  0  0  0  0  0  0  0  0  0  0  0
    0.2046   -4.7158    0.0000 O   0  0  0  0  0  0  0  0  0  0  0  0
    1.8610   -4.7158    0.0000 O   0  0  0  0  0  0  0  0  0  0  0  0
    2.4651   -3.8457    0.0000 N   0  0  0  0  0  0  0  0  0  0  0  0
    5.3336   -3.8301    0.0000 N   0  0  0  0  0  0  0  0  0  0  0  0
    4.6379   -2.6405    0.0000 N   0  0  0  0  0  0  0  0  0  0  0  0
    9.8702   -1.3835    0.0000 N   0  0  0  0  0  0  0  0  0  0  0  0
    6.7717   -4.7158    0.0000 O   0  0  0  0  0  0  0  0  0  0  0  0
    1.0231   -4.7158    0.0000 S   0  0  0  0  0  0  0  0  0  0  0  0
    3.9071   -3.8974    0.0000 N   0  0  0  0  0  0  0  0  0  0  0  0
  1 12  1  0  0  0  0
  2 12  1  0  0  0  0
 12 13  1  0  0  0  0
 13 14  1  0  0  0  0
  4 14  1  0  0  0  0
  3 15  1  0  0  0  0
  5 16  1  0  0  0  0
  6 16  1  0  0  0  0
 16 17  1  0  0  0  0
 14 17  1  0  0  0  0
 14 18  1  0  0  0  0
 15 18  1  0  0  0  0
 19 20  2  0  0  0  0
 20 21  1  0  0  0  0
 21 22  2  0  0  0  0
 22 23  1  0  0  0  0
 23 24  2  0  0  0  0
 19 24  1  0  0  0  0
 25 26  1  0  0  0  0
  7 26  1  0  0  0  0
 15 27  2  0  0  0  0
 27 28  1  0  0  0  0
 26 29  2  0  0  0  0
 18 30  2  0  0  0  0
 30 31  1  0  0  0  0
 28 31  2  0  0  0  0
  8 33  1  0  0  0  0
  9 33  1  0  0  0  0
 10 34  1  0  0  0  0
 11 34  1  0  0  0  0
 19 37  1  0  0  0  0
 29 37  1  0  0  0  0
 28 38  1  0  0  0  0
 32 38  1  0  0  0  0
 25 39  2  0  0  0  0
 32 39  1  0  0  0  0
 12 40  1  0  0  0  0
 16 40  1  0  0  0  0
 31 41  1  0  0  0  0
 33 41  1  0  0  0  0
 24 42  1  0  0  0  0
 34 42  1  0  0  0  0
 35 42  2  0  0  0  0
 36 42  2  0  0  0  0
 29 43  1  0  0  0  0
 32 43  2  0  0  0  0
M  END
> <ID>
SCHEMBL21169776

> <InChIKey>
RGKIVXXNLHRLRT-UHFFFAOYSA-N

> <MW>
638.13

> <Series_Name>
Series_7

$$$$
SCHEMBL21169778
  Mrv1719007241902272D 0   0.00000     0.00000     0

 44 47  0  0  0  0              1 V2000 
    9.3309   -0.2062    0.0000 O   0  0  0  0  0  0  0  0  0  0  0  0
    8.1916   -0.5010    0.0000 O   0  0  0  0  0  0  0  0  0  0  0  0
    6.7772   -1.2965    0.0000 C   0  0  0  0  0  0  0  0  0  0  0  0
   10.4507   -2.1510    0.0000 O   0  0  0  0  0  0  0  0  0  0  0  0
    9.6453   -2.9958    0.0000 O   0  0  0  0  0  0  0  0  0  0  0  0
    2.2787   -2.1609    0.0000 Cl  0  0  0  0  0  0  0  0  0  0  0  0
    8.1719   -4.6360    0.0000 C   0  0  0  0  0  0  0  0  0  0  0  0
    8.1916   -5.4808    0.0000 O   0  0  0  0  0  0  0  0  0  0  0  0
    7.4844   -5.8540    0.0000 C   0  0  0  0  0  0  0  0  0  0  0  0
    0.2357   -5.6575    0.0000 C   0  0  0  0  0  0  0  0  0  0  0  0
    1.6698   -5.9522    0.0000 C   0  0  0  0  0  0  0  0  0  0  0  0
    1.0215   -6.3156    0.0000 O   0  0  0  0  0  0  0  0  0  0  0  0
    8.9037   -0.8594    0.0000 C   0  0  0  0  0  0  0  0  0  0  0  0
    8.1916   -1.2769    0.0000 C   0  0  0  0  0  0  0  0  0  0  0  0
    8.1916   -2.1281    0.0000 C   0  0  0  0  0  0  0  0  0  0  0  0
    6.7772   -2.1085    0.0000 C   0  0  0  0  0  0  0  0  0  0  0  0
    9.6355   -2.1265    0.0000 C   0  0  0  0  0  0  0  0  0  0  0  0
    1.7221   -3.3657    0.0000 C   0  0  0  0  0  0  0  0  0  0  0  0
    1.7483   -2.5538    0.0000 C   0  0  0  0  0  0  0  0  0  0  0  0
    1.0215   -2.1216    0.0000 C   0  0  0  0  0  0  0  0  0  0  0  0
    0.3143   -2.5341    0.0000 C   0  0  0  0  0  0  0  0  0  0  0  0
    0.3143   -3.3591    0.0000 C   0  0  0  0  0  0  0  0  0  0  0  0
    1.0215   -3.7848    0.0000 C   0  0  0  0  0  0  0  0  0  0  0  0
    3.8896   -2.1216    0.0000 C   0  0  0  0  0  0  0  0  0  0  0  0
    3.1823   -2.5144    0.0000 C   0  0  0  0  0  0  0  0  0  0  0  0
    3.1823   -3.3657    0.0000 C   0  0  0  0  0  0  0  0  0  0  0  0
    7.4844   -2.5276    0.0000 C   0  0  0  0  0  0  0  0  0  0  0  0
    6.0503   -2.5341    0.0000 C   0  0  0  0  0  0  0  0  0  0  0  0
    6.0503   -3.3657    0.0000 C   0  0  0  0  0  0  0  0  0  0  0  0
    8.9184   -2.5341    0.0000 C   0  0  0  0  0  0  0  0  0  0  0  0
    7.4844   -3.3591    0.0000 C   0  0  0  0  0  0  0  0  0  0  0  0
    6.7642   -3.7717    0.0000 C   0  0  0  0  0  0  0  0  0  0  0  0
    4.6164   -3.3657    0.0000 C   0  0  0  0  0  0  0  0  0  0  0  0
    7.4893   -5.0437    0.0000 C   0  0  0  0  0  0  0  0  0  0  0  0
    1.0312   -5.4660    0.0000 C   0  0  0  0  0  0  0  0  0  0  0  0
    0.2062   -4.6459    0.0000 O   0  0  0  0  0  0  0  0  0  0  0  0
    1.8661   -4.6459    0.0000 O   0  0  0  0  0  0  0  0  0  0  0  0
    2.4693   -3.7894    0.0000 N   0  0  0  0  0  0  0  0  0  0  0  0
    3.8994   -3.8208    0.0000 N   0  0  0  0  0  0  0  0  0  0  0  0
    5.3008   -3.7785    0.0000 N   0  0  0  0  0  0  0  0  0  0  0  0
    1.0215   -4.6459    0.0000 S   0  0  0  0  0  0  0  0  0  0  0  0
    6.7576   -4.6459    0.0000 O   0  0  0  0  0  0  0  0  0  0  0  0
    9.8417   -1.3162    0.0000 N   0  0  0  0  0  0  0  0  0  0  0  0
    4.6262   -2.5734    0.0000 N   0  0  0  0  0  0  0  0  0  0  0  0
  1 13  1  0  0  0  0
  2 13  1  0  0  0  0
 13 14  1  0  0  0  0
 14 15  1  0  0  0  0
  3 16  1  0  0  0  0
  4 17  1  0  0  0  0
  5 17  1  0  0  0  0
 18 19  2  0  0  0  0
 19 20  1  0  0  0  0
 20 21  2  0  0  0  0
 21 22  1  0  0  0  0
 22 23  2  0  0  0  0
 18 23  1  0  0  0  0
 24 25  1  0  0  0  0
  6 25  1  0  0  0  0
 25 26  2  0  0  0  0
 16 27  1  0  0  0  0
 15 27  1  0  0  0  0
 16 28  2  0  0  0  0
 28 29  1  0  0  0  0
 17 30  1  0  0  0  0
 15 30  1  0  0  0  0
 27 31  2  0  0  0  0
 31 32  1  0  0  0  0
 29 32  2  0  0  0  0
  7 34  1  0  0  0  0
  9 34  1  0  0  0  0
  8 34  1  0  0  0  0
 10 35  1  0  0  0  0
 11 35  1  0  0  0  0
 12 35  1  0  0  0  0
 18 38  1  0  0  0  0
 26 38  1  0  0  0  0
 26 39  1  0  0  0  0
 33 39  2  0  0  0  0
 29 40  1  0  0  0  0
 33 40  1  0  0  0  0
 23 41  1  0  0  0  0
 35 41  1  0  0  0  0
 36 41  2  0  0  0  0
 37 41  2  0  0  0  0
 32 42  1  0  0  0  0
 34 42  1  0  0  0  0
 13 43  1  0  0  0  0
 17 43  1  0  0  0  0
 24 44  2  0  0  0  0
 33 44  1  0  0  0  0
M  END
> <ID>
SCHEMBL21169778

> <InChIKey>
LYPPFAAWSLEHSD-UHFFFAOYSA-N

> <MW>
654.13

> <Series_Name>
Series_7

$$$$
SCHEMBL21169780
  Mrv1719007241902302D 0   0.00000     0.00000     0

 43 46  0  0  0  0              1 V2000 
    6.7407   -0.4481    0.0000 C   0  0  0  0  0  0  0  0  0  0  0  0
    2.2891   -1.2955    0.0000 Cl  0  0  0  0  0  0  0  0  0  0  0  0
    8.8836   -4.1691    0.0000 O   0  0  0  0  0  0  0  0  0  0  0  0
    8.1823   -4.5879    0.0000 O   0  0  0  0  0  0  0  0  0  0  0  0
    1.6364   -5.0263    0.0000 C   0  0  0  0  0  0  0  0  0  0  0  0
    0.2337   -4.7535    0.0000 C   0  0  0  0  0  0  0  0  0  0  0  0
    6.7407   -5.3964    0.0000 O   0  0  0  0  0  0  0  0  0  0  0  0
    7.4517   -5.8153    0.0000 O   0  0  0  0  0  0  0  0  0  0  0  0
    8.1823   -5.3964    0.0000 O   0  0  0  0  0  0  0  0  0  0  0  0
    8.8836   -0.0195    0.0000 C   0  0  0  0  0  0  0  0  0  0  0  0
    8.2017   -0.4091    0.0000 C   0  0  0  0  0  0  0  0  0  0  0  0
    8.1823   -1.2339    0.0000 C   0  0  0  0  0  0  0  0  0  0  0  0
    6.7407   -1.2339    0.0000 C   0  0  0  0  0  0  0  0  0  0  0  0
    9.6239   -1.2273    0.0000 C   0  0  0  0  0  0  0  0  0  0  0  0
    8.9031   -1.6559    0.0000 C   0  0  0  0  0  0  0  0  0  0  0  0
    1.7469   -2.4611    0.0000 C   0  0  0  0  0  0  0  0  0  0  0  0
    1.7339   -1.6754    0.0000 C   0  0  0  0  0  0  0  0  0  0  0  0
    0.9156   -1.2858    0.0000 C   0  0  0  0  0  0  0  0  0  0  0  0
    0.3117   -1.6754    0.0000 C   0  0  0  0  0  0  0  0  0  0  0  0
    0.3117   -2.4742    0.0000 C   0  0  0  0  0  0  0  0  0  0  0  0
    1.0195   -2.8962    0.0000 C   0  0  0  0  0  0  0  0  0  0  0  0
    3.8768   -1.2468    0.0000 C   0  0  0  0  0  0  0  0  0  0  0  0
    3.1755   -1.6430    0.0000 C   0  0  0  0  0  0  0  0  0  0  0  0
    3.1755   -2.4611    0.0000 C   0  0  0  0  0  0  0  0  0  0  0  0
    6.0393   -1.6754    0.0000 C   0  0  0  0  0  0  0  0  0  0  0  0
    6.0393   -2.4611    0.0000 C   0  0  0  0  0  0  0  0  0  0  0  0
    7.4679   -1.6559    0.0000 C   0  0  0  0  0  0  0  0  0  0  0  0
    7.4809   -2.4547    0.0000 C   0  0  0  0  0  0  0  0  0  0  0  0
    6.7407   -2.8962    0.0000 C   0  0  0  0  0  0  0  0  0  0  0  0
    4.5977   -2.4806    0.0000 C   0  0  0  0  0  0  0  0  0  0  0  0
    8.1628   -3.7599    0.0000 C   0  0  0  0  0  0  0  0  0  0  0  0
    7.4907   -4.1496    0.0000 C   0  0  0  0  0  0  0  0  0  0  0  0
    1.0325   -4.5457    0.0000 C   0  0  0  0  0  0  0  0  0  0  0  0
    7.4615   -4.9580    0.0000 C   0  0  0  0  0  0  0  0  0  0  0  0
    0.2046   -3.7502    0.0000 O   0  0  0  0  0  0  0  0  0  0  0  0
    1.8508   -3.7502    0.0000 O   0  0  0  0  0  0  0  0  0  0  0  0
    4.6074   -1.7047    0.0000 N   0  0  0  0  0  0  0  0  0  0  0  0
    9.8187   -0.4578    0.0000 N   0  0  0  0  0  0  0  0  0  0  0  0
    6.7309   -3.7502    0.0000 O   0  0  0  0  0  0  0  0  0  0  0  0
    1.0130   -3.7502    0.0000 S   0  0  0  0  0  0  0  0  0  0  0  0
    5.3087   -2.9223    0.0000 N   0  0  0  0  0  0  0  0  0  0  0  0
    3.8865   -2.9223    0.0000 N   0  0  0  0  0  0  0  0  0  0  0  0
    2.4644   -2.9223    0.0000 N   0  0  0  0  0  0  0  0  0  0  0  0
 10 11  1  0  0  0  0
 11 12  1  0  0  0  0
  1 13  1  0  0  0  0
 14 15  1  0  0  0  0
 12 15  1  0  0  0  0
 16 17  2  0  0  0  0
 17 18  1  0  0  0  0
 18 19  2  0  0  0  0
 19 20  1  0  0  0  0
 20 21  2  0  0  0  0
 16 21  1  0  0  0  0
 22 23  1  0  0  0  0
  2 23  1  0  0  0  0
 23 24  2  0  0  0  0
 13 25  2  0  0  0  0
 25 26  1  0  0  0  0
 13 27  1  0  0  0  0
 12 27  1  0  0  0  0
 27 28  2  0  0  0  0
 28 29  1  0  0  0  0
 26 29  2  0  0  0  0
  3 31  1  0  0  0  0
 31 32  1  0  0  0  0
  4 32  1  0  0  0  0
  5 33  1  0  0  0  0
  6 33  1  0  0  0  0
 32 34  1  0  0  0  0
  7 34  1  0  0  0  0
  8 34  1  0  0  0  0
  9 34  1  0  0  0  0
 22 37  2  0  0  0  0
 30 37  1  0  0  0  0
 10 38  1  0  0  0  0
 14 38  1  0  0  0  0
 29 39  1  0  0  0  0
 32 39  1  0  0  0  0
 21 40  1  0  0  0  0
 33 40  1  0  0  0  0
 35 40  2  0  0  0  0
 36 40  2  0  0  0  0
 26 41  1  0  0  0  0
 30 41  1  0  0  0  0
 24 42  1  0  0  0  0
 30 42  2  0  0  0  0
 16 43  1  0  0  0  0
 24 43  1  0  0  0  0
M  END
> <ID>
SCHEMBL21169780

> <InChIKey>
CSIBBOYTSLSHBL-UHFFFAOYSA-N

> <MW>
638.13

> <Series_Name>
Series_7

$$$$
SCHEMBL21169783
  Mrv1719007241902302D 0   0.00000     0.00000     0

 45 48  0  0  0  0              1 V2000 
    6.6910   -0.4637    0.0000 C   0  0  0  0  0  0  0  0  0  0  0  0
    2.2458   -1.3183    0.0000 Cl  0  0  0  0  0  0  0  0  0  0  0  0
    8.0888   -2.9877    0.0000 O   0  0  0  0  0  0  0  0  0  0  0  0
    8.7976   -3.3985    0.0000 O   0  0  0  0  0  0  0  0  0  0  0  0
    8.8042   -4.2332    0.0000 O   0  0  0  0  0  0  0  0  0  0  0  0
    8.0954   -4.6572    0.0000 O   0  0  0  0  0  0  0  0  0  0  0  0
    0.2517   -4.8360    0.0000 C   0  0  0  0  0  0  0  0  0  0  0  0
    1.6694   -5.1275    0.0000 C   0  0  0  0  0  0  0  0  0  0  0  0
    6.6843   -5.4919    0.0000 O   0  0  0  0  0  0  0  0  0  0  0  0
    7.3998   -5.8960    0.0000 O   0  0  0  0  0  0  0  0  0  0  0  0
    8.0888   -5.4919    0.0000 O   0  0  0  0  0  0  0  0  0  0  0  0
    8.7843   -0.0265    0.0000 C   0  0  0  0  0  0  0  0  0  0  0  0
    8.1351   -0.3975    0.0000 C   0  0  0  0  0  0  0  0  0  0  0  0
    8.1087   -1.2763    0.0000 C   0  0  0  0  0  0  0  0  0  0  0  0
    6.7042   -1.2763    0.0000 C   0  0  0  0  0  0  0  0  0  0  0  0
    9.5396   -1.2587    0.0000 C   0  0  0  0  0  0  0  0  0  0  0  0
    8.8373   -1.6959    0.0000 C   0  0  0  0  0  0  0  0  0  0  0  0
    1.7401   -2.5350    0.0000 C   0  0  0  0  0  0  0  0  0  0  0  0
    1.7489   -1.7092    0.0000 C   0  0  0  0  0  0  0  0  0  0  0  0
    1.0467   -1.2852    0.0000 C   0  0  0  0  0  0  0  0  0  0  0  0
    0.3312   -1.6959    0.0000 C   0  0  0  0  0  0  0  0  0  0  0  0
    0.3312   -2.5307    0.0000 C   0  0  0  0  0  0  0  0  0  0  0  0
    1.0334   -2.9502    0.0000 C   0  0  0  0  0  0  0  0  0  0  0  0
    3.8424   -1.2852    0.0000 C   0  0  0  0  0  0  0  0  0  0  0  0
    3.1533   -1.7047    0.0000 C   0  0  0  0  0  0  0  0  0  0  0  0
    7.4064   -1.7047    0.0000 C   0  0  0  0  0  0  0  0  0  0  0  0
    5.9755   -1.7092    0.0000 C   0  0  0  0  0  0  0  0  0  0  0  0
    5.9799   -2.5350    0.0000 C   0  0  0  0  0  0  0  0  0  0  0  0
    3.1533   -2.5350    0.0000 C   0  0  0  0  0  0  0  0  0  0  0  0
    7.4064   -2.5307    0.0000 C   0  0  0  0  0  0  0  0  0  0  0  0
    6.6865   -2.9502    0.0000 C   0  0  0  0  0  0  0  0  0  0  0  0
    4.5578   -2.5350    0.0000 C   0  0  0  0  0  0  0  0  0  0  0  0
    8.1219   -3.7694    0.0000 C   0  0  0  0  0  0  0  0  0  0  0  0
    7.4164   -4.2067    0.0000 C   0  0  0  0  0  0  0  0  0  0  0  0
    1.0334   -4.6285    0.0000 C   0  0  0  0  0  0  0  0  0  0  0  0
    0.1987   -3.8092    0.0000 O   0  0  0  0  0  0  0  0  0  0  0  0
    1.8416   -3.8092    0.0000 O   0  0  0  0  0  0  0  0  0  0  0  0
    7.3932   -5.0237    0.0000 C   0  0  0  0  0  0  0  0  0  0  0  0
    9.6986   -0.4836    0.0000 N   0  0  0  0  0  0  0  0  0  0  0  0
    2.4564   -2.9323    0.0000 N   0  0  0  0  0  0  0  0  0  0  0  0
    5.2653   -2.9353    0.0000 N   0  0  0  0  0  0  0  0  0  0  0  0
    1.0467   -3.8092    0.0000 S   0  0  0  0  0  0  0  0  0  0  0  0
    4.5710   -1.7158    0.0000 N   0  0  0  0  0  0  0  0  0  0  0  0
    3.8556   -2.9877    0.0000 N   0  0  0  0  0  0  0  0  0  0  0  0
    6.6910   -3.8092    0.0000 O   0  0  0  0  0  0  0  0  0  0  0  0
 12 13  1  0  0  0  0
 13 14  1  0  0  0  0
  1 15  1  0  0  0  0
 16 17  1  0  0  0  0
 14 17  1  0  0  0  0
 18 19  2  0  0  0  0
 19 20  1  0  0  0  0
 20 21  2  0  0  0  0
 21 22  1  0  0  0  0
 22 23  2  0  0  0  0
 18 23  1  0  0  0  0
 24 25  1  0  0  0  0
  2 25  1  0  0  0  0
 15 26  1  0  0  0  0
 14 26  1  0  0  0  0
 15 27  2  0  0  0  0
 27 28  1  0  0  0  0
 25 29  2  0  0  0  0
 26 30  2  0  0  0  0
 30 31  1  0  0  0  0
 28 31  2  0  0  0  0
  3 33  1  0  0  0  0
  4 33  1  0  0  0  0
  5 33  1  0  0  0  0
 33 34  1  0  0  0  0
  6 34  1  0  0  0  0
  7 35  1  0  0  0  0
  8 35  1  0  0  0  0
 34 38  1  0  0  0  0
  9 38  1  0  0  0  0
 10 38  1  0  0  0  0
 11 38  1  0  0  0  0
 12 39  1  0  0  0  0
 16 39  1  0  0  0  0
 18 40  1  0  0  0  0
 29 40  1  0  0  0  0
 28 41  1  0  0  0  0
 32 41  1  0  0  0  0
 23 42  1  0  0  0  0
 35 42  1  0  0  0  0
 36 42  2  0  0  0  0
 37 42  2  0  0  0  0
 24 43  2  0  0  0  0
 32 43  1  0  0  0  0
 29 44  1  0  0  0  0
 32 44  2  0  0  0  0
 31 45  1  0  0  0  0
 34 45  1  0  0  0  0
M  END
> <ID>
SCHEMBL21169783

> <InChIKey>
NCOQPAPMRZXIJZ-UHFFFAOYSA-N

> <MW>
670.13

> <Series_Name>
Series_7

$$$$
SCHEMBL21169784
  Mrv1719007241902302D 0   0.00000     0.00000     0

 43 46  0  0  0  0              1 V2000 
    9.3180   -0.2046    0.0000 O   0  0  0  0  0  0  0  0  0  0  0  0
    8.1982   -0.4965    0.0000 O   0  0  0  0  0  0  0  0  0  0  0  0
    6.7571   -1.3047    0.0000 C   0  0  0  0  0  0  0  0  0  0  0  0
   10.4376   -2.1615    0.0000 O   0  0  0  0  0  0  0  0  0  0  0  0
    9.6101   -2.9989    0.0000 O   0  0  0  0  0  0  0  0  0  0  0  0
    2.2881   -2.1713    0.0000 Cl  0  0  0  0  0  0  0  0  0  0  0  0
    8.1788   -4.6151    0.0000 C   0  0  0  0  0  0  0  0  0  0  0  0
    8.1788   -5.4817    0.0000 O   0  0  0  0  0  0  0  0  0  0  0  0
    7.4582   -5.8615    0.0000 C   0  0  0  0  0  0  0  0  0  0  0  0
    1.6553   -5.9393    0.0000 C   0  0  0  0  0  0  0  0  0  0  0  0
    0.2336   -5.6473    0.0000 C   0  0  0  0  0  0  0  0  0  0  0  0
    8.8895   -0.8520    0.0000 C   0  0  0  0  0  0  0  0  0  0  0  0
    8.1982   -1.2852    0.0000 C   0  0  0  0  0  0  0  0  0  0  0  0
    8.1722   -2.1290    0.0000 C   0  0  0  0  0  0  0  0  0  0  0  0
    6.7571   -2.1290    0.0000 C   0  0  0  0  0  0  0  0  0  0  0  0
    9.6101   -2.1469    0.0000 C   0  0  0  0  0  0  0  0  0  0  0  0
    1.7526   -3.3753    0.0000 C   0  0  0  0  0  0  0  0  0  0  0  0
    1.7526   -2.5509    0.0000 C   0  0  0  0  0  0  0  0  0  0  0  0
    0.9152   -2.1810    0.0000 C   0  0  0  0  0  0  0  0  0  0  0  0
    0.3116   -2.5509    0.0000 C   0  0  0  0  0  0  0  0  0  0  0  0
    0.3116   -3.3688    0.0000 C   0  0  0  0  0  0  0  0  0  0  0  0
    1.0192   -3.7713    0.0000 C   0  0  0  0  0  0  0  0  0  0  0  0
    3.8752   -2.1420    0.0000 C   0  0  0  0  0  0  0  0  0  0  0  0
    3.1742   -2.5445    0.0000 C   0  0  0  0  0  0  0  0  0  0  0  0
    6.0367   -2.5315    0.0000 C   0  0  0  0  0  0  0  0  0  0  0  0
    6.0367   -3.3558    0.0000 C   0  0  0  0  0  0  0  0  0  0  0  0
    7.4582   -2.5445    0.0000 C   0  0  0  0  0  0  0  0  0  0  0  0
    8.8798   -2.5315    0.0000 C   0  0  0  0  0  0  0  0  0  0  0  0
    3.1742   -3.3753    0.0000 C   0  0  0  0  0  0  0  0  0  0  0  0
    7.4582   -3.3688    0.0000 C   0  0  0  0  0  0  0  0  0  0  0  0
    6.7571   -3.7713    0.0000 C   0  0  0  0  0  0  0  0  0  0  0  0
    4.5957   -3.3753    0.0000 C   0  0  0  0  0  0  0  0  0  0  0  0
    7.4631   -5.0338    0.0000 C   0  0  0  0  0  0  0  0  0  0  0  0
    1.0320   -5.4395    0.0000 C   0  0  0  0  0  0  0  0  0  0  0  0
    1.8596   -4.6444    0.0000 O   0  0  0  0  0  0  0  0  0  0  0  0
    0.2046   -4.6444    0.0000 O   0  0  0  0  0  0  0  0  0  0  0  0
    4.6151   -2.5802    0.0000 N   0  0  0  0  0  0  0  0  0  0  0  0
    2.4633   -3.8070    0.0000 N   0  0  0  0  0  0  0  0  0  0  0  0
    3.8850   -3.8070    0.0000 N   0  0  0  0  0  0  0  0  0  0  0  0
    5.3260   -3.8070    0.0000 N   0  0  0  0  0  0  0  0  0  0  0  0
    1.0126   -4.6444    0.0000 S   0  0  0  0  0  0  0  0  0  0  0  0
    6.7475   -4.6444    0.0000 O   0  0  0  0  0  0  0  0  0  0  0  0
    9.8242   -1.3339    0.0000 N   0  0  0  0  0  0  0  0  0  0  0  0
  1 12  1  0  0  0  0
  2 12  1  0  0  0  0
 12 13  1  0  0  0  0
 13 14  1  0  0  0  0
  3 15  1  0  0  0  0
  4 16  1  0  0  0  0
  5 16  1  0  0  0  0
 17 18  2  0  0  0  0
 18 19  1  0  0  0  0
 19 20  2  0  0  0  0
 20 21  1  0  0  0  0
 21 22  2  0  0  0  0
 17 22  1  0  0  0  0
 23 24  1  0  0  0  0
  6 24  1  0  0  0  0
 15 25  2  0  0  0  0
 25 26  1  0  0  0  0
 15 27  1  0  0  0  0
 14 27  1  0  0  0  0
 16 28  1  0  0  0  0
 14 28  1  0  0  0  0
 24 29  2  0  0  0  0
 27 30  2  0  0  0  0
 30 31  1  0  0  0  0
 26 31  2  0  0  0  0
  7 33  1  0  0  0  0
  9 33  1  0  0  0  0
  8 33  1  0  0  0  0
 10 34  1  0  0  0  0
 11 34  1  0  0  0  0
 23 37  2  0  0  0  0
 32 37  1  0  0  0  0
 17 38  1  0  0  0  0
 29 38  1  0  0  0  0
 29 39  1  0  0  0  0
 32 39  2  0  0  0  0
 26 40  1  0  0  0  0
 32 40  1  0  0  0  0
 22 41  1  0  0  0  0
 34 41  1  0  0  0  0
 35 41  2  0  0  0  0
 36 41  2  0  0  0  0
 31 42  1  0  0  0  0
 33 42  1  0  0  0  0
 12 43  1  0  0  0  0
 16 43  1  0  0  0  0
M  END
> <ID>
SCHEMBL21169784

> <InChIKey>
MVSAIWNXOJCNMX-UHFFFAOYSA-N

> <MW>
638.13

> <Series_Name>
Series_7

$$$$
SCHEMBL21169802
  Mrv1719007241902372D 0   0.00000     0.00000     0

 44 47  0  0  0  0              1 V2000 
    6.7515   -0.3609    0.0000 O   0  0  0  0  0  0  0  0  0  0  0  0
    6.0393   -0.7609    0.0000 O   0  0  0  0  0  0  0  0  0  0  0  0
    7.4539   -0.7609    0.0000 O   0  0  0  0  0  0  0  0  0  0  0  0
    7.4539   -1.5904    0.0000 O   0  0  0  0  0  0  0  0  0  0  0  0
    2.2830   -2.0196    0.0000 Cl  0  0  0  0  0  0  0  0  0  0  0  0
    8.1564   -4.4880    0.0000 C   0  0  0  0  0  0  0  0  0  0  0  0
    7.4539   -5.7173    0.0000 C   0  0  0  0  0  0  0  0  0  0  0  0
    8.1759   -5.3466    0.0000 O   0  0  0  0  0  0  0  0  0  0  0  0
    0.2537   -5.5222    0.0000 C   0  0  0  0  0  0  0  0  0  0  0  0
    1.6781   -5.8149    0.0000 C   0  0  0  0  0  0  0  0  0  0  0  0
    1.0342   -6.1758    0.0000 O   0  0  0  0  0  0  0  0  0  0  0  0
    6.7515   -1.1220    0.0000 C   0  0  0  0  0  0  0  0  0  0  0  0
    8.8394   -0.7415    0.0000 C   0  0  0  0  0  0  0  0  0  0  0  0
    8.1955   -1.1317    0.0000 C   0  0  0  0  0  0  0  0  0  0  0  0
    8.1613   -1.9708    0.0000 C   0  0  0  0  0  0  0  0  0  0  0  0
    6.7515   -1.9773    0.0000 C   0  0  0  0  0  0  0  0  0  0  0  0
    9.6199   -1.9708    0.0000 C   0  0  0  0  0  0  0  0  0  0  0  0
    8.8979   -2.3806    0.0000 C   0  0  0  0  0  0  0  0  0  0  0  0
    7.4539   -2.3936    0.0000 C   0  0  0  0  0  0  0  0  0  0  0  0
    1.7562   -3.2261    0.0000 C   0  0  0  0  0  0  0  0  0  0  0  0
    1.7562   -2.4001    0.0000 C   0  0  0  0  0  0  0  0  0  0  0  0
    0.9171   -2.0293    0.0000 C   0  0  0  0  0  0  0  0  0  0  0  0
    0.3122   -2.4001    0.0000 C   0  0  0  0  0  0  0  0  0  0  0  0
    0.3122   -3.2196    0.0000 C   0  0  0  0  0  0  0  0  0  0  0  0
    1.0212   -3.6294    0.0000 C   0  0  0  0  0  0  0  0  0  0  0  0
    3.8636   -1.9904    0.0000 C   0  0  0  0  0  0  0  0  0  0  0  0
    3.1806   -2.3936    0.0000 C   0  0  0  0  0  0  0  0  0  0  0  0
    6.0295   -2.3806    0.0000 C   0  0  0  0  0  0  0  0  0  0  0  0
    6.0295   -3.2261    0.0000 C   0  0  0  0  0  0  0  0  0  0  0  0
    3.1806   -3.2261    0.0000 C   0  0  0  0  0  0  0  0  0  0  0  0
    7.4539   -3.2196    0.0000 C   0  0  0  0  0  0  0  0  0  0  0  0
    6.7515   -3.6424    0.0000 C   0  0  0  0  0  0  0  0  0  0  0  0
    4.6245   -3.2261    0.0000 C   0  0  0  0  0  0  0  0  0  0  0  0
    7.4685   -4.8978    0.0000 C   0  0  0  0  0  0  0  0  0  0  0  0
    1.8635   -4.5075    0.0000 O   0  0  0  0  0  0  0  0  0  0  0  0
    0.2048   -4.5075    0.0000 O   0  0  0  0  0  0  0  0  0  0  0  0
    1.0342   -5.3270    0.0000 C   0  0  0  0  0  0  0  0  0  0  0  0
    5.3217   -3.6467    0.0000 N   0  0  0  0  0  0  0  0  0  0  0  0
    2.4255   -3.6419    0.0000 N   0  0  0  0  0  0  0  0  0  0  0  0
    4.6050   -2.4293    0.0000 N   0  0  0  0  0  0  0  0  0  0  0  0
    9.8150   -1.1805    0.0000 N   0  0  0  0  0  0  0  0  0  0  0  0
    6.7417   -4.5075    0.0000 O   0  0  0  0  0  0  0  0  0  0  0  0
    1.0147   -4.5075    0.0000 S   0  0  0  0  0  0  0  0  0  0  0  0
    3.8929   -3.6880    0.0000 N   0  0  0  0  0  0  0  0  0  0  0  0
  1 12  1  0  0  0  0
  3 12  1  0  0  0  0
  2 12  1  0  0  0  0
 13 14  1  0  0  0  0
 14 15  1  0  0  0  0
  4 15  1  0  0  0  0
 12 16  1  0  0  0  0
 17 18  1  0  0  0  0
 15 18  1  0  0  0  0
 15 19  1  0  0  0  0
 16 19  1  0  0  0  0
 20 21  2  0  0  0  0
 21 22  1  0  0  0  0
 22 23  2  0  0  0  0
 23 24  1  0  0  0  0
 24 25  2  0  0  0  0
 20 25  1  0  0  0  0
 26 27  1  0  0  0  0
  5 27  1  0  0  0  0
 16 28  2  0  0  0  0
 28 29  1  0  0  0  0
 27 30  2  0  0  0  0
 19 31  2  0  0  0  0
 31 32  1  0  0  0  0
 29 32  2  0  0  0  0
  6 34  1  0  0  0  0
  7 34  1  0  0  0  0
  8 34  1  0  0  0  0
  9 37  1  0  0  0  0
 10 37  1  0  0  0  0
 11 37  1  0  0  0  0
 29 38  1  0  0  0  0
 33 38  1  0  0  0  0
 20 39  1  0  0  0  0
 30 39  1  0  0  0  0
 26 40  2  0  0  0  0
 33 40  1  0  0  0  0
 13 41  1  0  0  0  0
 17 41  1  0  0  0  0
 32 42  1  0  0  0  0
 34 42  1  0  0  0  0
 25 43  1  0  0  0  0
 35 43  2  0  0  0  0
 36 43  2  0  0  0  0
 37 43  1  0  0  0  0
 30 44  1  0  0  0  0
 33 44  2  0  0  0  0
M  END
> <ID>
SCHEMBL21169802

> <InChIKey>
KWCXGKAOSRDUCH-UHFFFAOYSA-N

> <MW>
654.13

> <Series_Name>
Series_7

$$$$
SCHEMBL21169823
  Mrv1719007241902432D 0   0.00000     0.00000     0

 36 39  0  0  0  0              1 V2000 
    7.4795   -0.4517    0.0000 C   0  0  0  0  0  0  0  0  0  0  0  0
    2.9825   -1.2821    0.0000 Cl  0  0  0  0  0  0  0  0  0  0  0  0
    8.9011   -3.7199    0.0000 C   0  0  0  0  0  0  0  0  0  0  0  0
    8.1837   -4.9554    0.0000 C   0  0  0  0  0  0  0  0  0  0  0  0
    1.7536   -5.4070    0.0000 O   0  0  0  0  0  0  0  0  0  0  0  0
    9.6052   -0.0133    0.0000 C   0  0  0  0  0  0  0  0  0  0  0  0
    8.9542   -0.3986    0.0000 C   0  0  0  0  0  0  0  0  0  0  0  0
    8.9011   -1.2532    0.0000 C   0  0  0  0  0  0  0  0  0  0  0  0
    7.4795   -1.2532    0.0000 C   0  0  0  0  0  0  0  0  0  0  0  0
   10.3225   -1.2355    0.0000 C   0  0  0  0  0  0  0  0  0  0  0  0
    9.6317   -1.6473    0.0000 C   0  0  0  0  0  0  0  0  0  0  0  0
    2.4843   -2.4887    0.0000 C   0  0  0  0  0  0  0  0  0  0  0  0
    2.4711   -1.6340    0.0000 C   0  0  0  0  0  0  0  0  0  0  0  0
    1.7935   -1.2621    0.0000 C   0  0  0  0  0  0  0  0  0  0  0  0
    1.0628   -1.6340    0.0000 C   0  0  0  0  0  0  0  0  0  0  0  0
    1.0496   -2.4975    0.0000 C   0  0  0  0  0  0  0  0  0  0  0  0
    1.7669   -2.9050    0.0000 C   0  0  0  0  0  0  0  0  0  0  0  0
    4.5966   -1.2621    0.0000 C   0  0  0  0  0  0  0  0  0  0  0  0
    3.8926   -1.6429    0.0000 C   0  0  0  0  0  0  0  0  0  0  0  0
    6.7621   -1.6473    0.0000 C   0  0  0  0  0  0  0  0  0  0  0  0
    6.7621   -2.5020    0.0000 C   0  0  0  0  0  0  0  0  0  0  0  0
    8.1837   -1.6562    0.0000 C   0  0  0  0  0  0  0  0  0  0  0  0
    3.8926   -2.4887    0.0000 C   0  0  0  0  0  0  0  0  0  0  0  0
    8.1837   -2.4975    0.0000 C   0  0  0  0  0  0  0  0  0  0  0  0
    7.4840   -2.8917    0.0000 C   0  0  0  0  0  0  0  0  0  0  0  0
    5.3406   -2.5020    0.0000 C   0  0  0  0  0  0  0  0  0  0  0  0
    8.1837   -4.1273    0.0000 C   0  0  0  0  0  0  0  0  0  0  0  0
    2.5906   -3.7464    0.0000 O   0  0  0  0  0  0  0  0  0  0  0  0
    0.9366   -3.7464    0.0000 O   0  0  0  0  0  0  0  0  0  0  0  0
   10.5152   -0.4650    0.0000 N   0  0  0  0  0  0  0  0  0  0  0  0
    7.4795   -3.7464    0.0000 O   0  0  0  0  0  0  0  0  0  0  0  0
    1.7469   -3.7464    0.0000 S   0  0  0  0  0  0  0  0  0  0  0  0
    3.2104   -2.8775    0.0000 N   0  0  0  0  0  0  0  0  0  0  0  0
    6.0291   -2.8723    0.0000 N   0  0  0  0  0  0  0  0  0  0  0  0
    4.6166   -2.9228    0.0000 N   0  0  0  0  0  0  0  0  0  0  0  0
    5.3340   -1.6938    0.0000 N   0  0  0  0  0  0  0  0  0  0  0  0
  6  7  1  0  0  0  0
  7  8  1  0  0  0  0
  1  9  1  0  0  0  0
 10 11  1  0  0  0  0
  8 11  1  0  0  0  0
 12 13  2  0  0  0  0
 13 14  1  0  0  0  0
 14 15  2  0  0  0  0
 15 16  1  0  0  0  0
 16 17  2  0  0  0  0
 12 17  1  0  0  0  0
 18 19  1  0  0  0  0
  2 19  1  0  0  0  0
  9 20  2  0  0  0  0
 20 21  1  0  0  0  0
  9 22  1  0  0  0  0
  8 22  1  0  0  0  0
 19 23  2  0  0  0  0
 22 24  2  0  0  0  0
 24 25  1  0  0  0  0
 21 25  2  0  0  0  0
  3 27  1  0  0  0  0
  4 27  1  0  0  0  0
  6 30  1  0  0  0  0
 10 30  1  0  0  0  0
 25 31  1  0  0  0  0
 27 31  1  0  0  0  0
 17 32  1  0  0  0  0
 28 32  2  0  0  0  0
 29 32  2  0  0  0  0
  5 32  1  0  0  0  0
 12 33  1  0  0  0  0
 23 33  1  0  0  0  0
 21 34  1  0  0  0  0
 26 34  1  0  0  0  0
 23 35  1  0  0  0  0
 26 35  2  0  0  0  0
 18 36  2  0  0  0  0
 26 36  1  0  0  0  0
M  END
> <ID>
SCHEMBL21169823

> <InChIKey>
UTSYTXLAAKSADX-UHFFFAOYSA-N

> <MW>
532.06

> <Series_Name>
Series_7

$$$$
SCHEMBL21169875
  Mrv1719007241902592D 0   0.00000     0.00000     0

 45 48  0  0  0  0              1 V2000 
    9.3201   -0.2039    0.0000 O   0  0  0  0  0  0  0  0  0  0  0  0
    8.1939   -0.4951    0.0000 O   0  0  0  0  0  0  0  0  0  0  0  0
    6.7571   -1.3009    0.0000 C   0  0  0  0  0  0  0  0  0  0  0  0
    7.4755   -1.7281    0.0000 O   0  0  0  0  0  0  0  0  0  0  0  0
   10.4463   -2.1456    0.0000 O   0  0  0  0  0  0  0  0  0  0  0  0
    9.6405   -2.9805    0.0000 O   0  0  0  0  0  0  0  0  0  0  0  0
    2.2815   -2.1553    0.0000 Cl  0  0  0  0  0  0  0  0  0  0  0  0
    8.1745   -4.6212    0.0000 C   0  0  0  0  0  0  0  0  0  0  0  0
    8.1939   -5.4659    0.0000 O   0  0  0  0  0  0  0  0  0  0  0  0
    7.4755   -5.8445    0.0000 C   0  0  0  0  0  0  0  0  0  0  0  0
    0.2330   -5.6309    0.0000 C   0  0  0  0  0  0  0  0  0  0  0  0
    1.0291   -6.3008    0.0000 O   0  0  0  0  0  0  0  0  0  0  0  0
    1.6698   -5.9415    0.0000 C   0  0  0  0  0  0  0  0  0  0  0  0
    8.9026   -0.8689    0.0000 C   0  0  0  0  0  0  0  0  0  0  0  0
    8.1939   -1.2815    0.0000 C   0  0  0  0  0  0  0  0  0  0  0  0
    8.1794   -2.0970    0.0000 C   0  0  0  0  0  0  0  0  0  0  0  0
    6.7571   -2.1035    0.0000 C   0  0  0  0  0  0  0  0  0  0  0  0
    9.6211   -2.1213    0.0000 C   0  0  0  0  0  0  0  0  0  0  0  0
    1.7216   -3.3656    0.0000 C   0  0  0  0  0  0  0  0  0  0  0  0
    1.7087   -2.5242    0.0000 C   0  0  0  0  0  0  0  0  0  0  0  0
    1.0291   -2.1164    0.0000 C   0  0  0  0  0  0  0  0  0  0  0  0
    0.3107   -2.5436    0.0000 C   0  0  0  0  0  0  0  0  0  0  0  0
    0.3107   -3.3591    0.0000 C   0  0  0  0  0  0  0  0  0  0  0  0
    1.0291   -3.7798    0.0000 C   0  0  0  0  0  0  0  0  0  0  0  0
    3.9028   -2.1164    0.0000 C   0  0  0  0  0  0  0  0  0  0  0  0
    3.1843   -2.5242    0.0000 C   0  0  0  0  0  0  0  0  0  0  0  0
    3.1843   -3.3656    0.0000 C   0  0  0  0  0  0  0  0  0  0  0  0
    7.4755   -2.5372    0.0000 C   0  0  0  0  0  0  0  0  0  0  0  0
    6.0581   -2.5436    0.0000 C   0  0  0  0  0  0  0  0  0  0  0  0
    6.0581   -3.3656    0.0000 C   0  0  0  0  0  0  0  0  0  0  0  0
    8.9124   -2.5436    0.0000 C   0  0  0  0  0  0  0  0  0  0  0  0
    7.4755   -3.3591    0.0000 C   0  0  0  0  0  0  0  0  0  0  0  0
    6.7571   -3.7798    0.0000 C   0  0  0  0  0  0  0  0  0  0  0  0
    4.6018   -3.3656    0.0000 C   0  0  0  0  0  0  0  0  0  0  0  0
    7.4804   -5.0435    0.0000 C   0  0  0  0  0  0  0  0  0  0  0  0
    1.0291   -5.4465    0.0000 C   0  0  0  0  0  0  0  0  0  0  0  0
    0.2039   -4.6309    0.0000 O   0  0  0  0  0  0  0  0  0  0  0  0
    1.8640   -4.6309    0.0000 O   0  0  0  0  0  0  0  0  0  0  0  0
    9.8347   -1.3106    0.0000 N   0  0  0  0  0  0  0  0  0  0  0  0
    6.7571   -4.6309    0.0000 O   0  0  0  0  0  0  0  0  0  0  0  0
    1.0291   -4.6309    0.0000 S   0  0  0  0  0  0  0  0  0  0  0  0
    5.2983   -3.7666    0.0000 N   0  0  0  0  0  0  0  0  0  0  0  0
    3.9028   -3.8154    0.0000 N   0  0  0  0  0  0  0  0  0  0  0  0
    2.4545   -3.7813    0.0000 N   0  0  0  0  0  0  0  0  0  0  0  0
    4.6115   -2.5630    0.0000 N   0  0  0  0  0  0  0  0  0  0  0  0
  1 14  1  0  0  0  0
  2 14  1  0  0  0  0
 14 15  1  0  0  0  0
 15 16  1  0  0  0  0
  4 16  1  0  0  0  0
  3 17  1  0  0  0  0
  5 18  1  0  0  0  0
  6 18  1  0  0  0  0
 19 20  2  0  0  0  0
 20 21  1  0  0  0  0
 21 22  2  0  0  0  0
 22 23  1  0  0  0  0
 23 24  2  0  0  0  0
 19 24  1  0  0  0  0
 25 26  1  0  0  0  0
  7 26  1  0  0  0  0
 26 27  2  0  0  0  0
 17 28  1  0  0  0  0
 16 28  1  0  0  0  0
 17 29  2  0  0  0  0
 29 30  1  0  0  0  0
 18 31  1  0  0  0  0
 16 31  1  0  0  0  0
 28 32  2  0  0  0  0
 32 33  1  0  0  0  0
 30 33  2  0  0  0  0
  8 35  1  0  0  0  0
  9 35  1  0  0  0  0
 10 35  1  0  0  0  0
 11 36  1  0  0  0  0
 12 36  1  0  0  0  0
 13 36  1  0  0  0  0
 14 39  1  0  0  0  0
 18 39  1  0  0  0  0
 33 40  1  0  0  0  0
 35 40  1  0  0  0  0
 24 41  1  0  0  0  0
 36 41  1  0  0  0  0
 37 41  2  0  0  0  0
 38 41  2  0  0  0  0
 30 42  1  0  0  0  0
 34 42  1  0  0  0  0
 27 43  1  0  0  0  0
 34 43  2  0  0  0  0
 19 44  1  0  0  0  0
 27 44  1  0  0  0  0
 25 45  2  0  0  0  0
 34 45  1  0  0  0  0
M  END
> <ID>
SCHEMBL21169875

> <InChIKey>
GYXBDHJUGCQCKG-UHFFFAOYSA-N

> <MW>
670.13

> <Series_Name>
Series_7

$$$$
SCHEMBL21169877
  Mrv1719007241902592D 0   0.00000     0.00000     0

 48 51  0  0  0  0              1 V2000 
    9.2477   -0.2062    0.0000 O   0  0  0  0  0  0  0  0  0  0  0  0
    8.1285   -0.5007    0.0000 O   0  0  0  0  0  0  0  0  0  0  0  0
    6.7149   -0.5007    0.0000 O   0  0  0  0  0  0  0  0  0  0  0  0
    6.0081   -0.9228    0.0000 O   0  0  0  0  0  0  0  0  0  0  0  0
    7.4217   -0.9228    0.0000 O   0  0  0  0  0  0  0  0  0  0  0  0
    7.4217   -1.7475    0.0000 O   0  0  0  0  0  0  0  0  0  0  0  0
   10.3669   -2.1696    0.0000 O   0  0  0  0  0  0  0  0  0  0  0  0
    9.5619   -3.0139    0.0000 O   0  0  0  0  0  0  0  0  0  0  0  0
    2.2677   -2.1794    0.0000 Cl  0  0  0  0  0  0  0  0  0  0  0  0
    8.1089   -4.6729    0.0000 C   0  0  0  0  0  0  0  0  0  0  0  0
    8.1285   -5.5369    0.0000 O   0  0  0  0  0  0  0  0  0  0  0  0
    7.4217   -5.9099    0.0000 C   0  0  0  0  0  0  0  0  0  0  0  0
    0.2553   -5.7136    0.0000 C   0  0  0  0  0  0  0  0  0  0  0  0
    1.0210   -6.3811    0.0000 O   0  0  0  0  0  0  0  0  0  0  0  0
    1.6689   -6.0081    0.0000 C   0  0  0  0  0  0  0  0  0  0  0  0
    8.8255   -0.8786    0.0000 C   0  0  0  0  0  0  0  0  0  0  0  0
    6.7149   -1.2811    0.0000 C   0  0  0  0  0  0  0  0  0  0  0  0
    8.1285   -1.2959    0.0000 C   0  0  0  0  0  0  0  0  0  0  0  0
    8.1040   -2.1205    0.0000 C   0  0  0  0  0  0  0  0  0  0  0  0
    6.7149   -2.1270    0.0000 C   0  0  0  0  0  0  0  0  0  0  0  0
    9.5521   -2.1450    0.0000 C   0  0  0  0  0  0  0  0  0  0  0  0
    1.7212   -3.4033    0.0000 C   0  0  0  0  0  0  0  0  0  0  0  0
    1.7475   -2.5917    0.0000 C   0  0  0  0  0  0  0  0  0  0  0  0
    1.0210   -2.1401    0.0000 C   0  0  0  0  0  0  0  0  0  0  0  0
    0.3141   -2.5721    0.0000 C   0  0  0  0  0  0  0  0  0  0  0  0
    0.3141   -3.3967    0.0000 C   0  0  0  0  0  0  0  0  0  0  0  0
    1.0210   -3.8221    0.0000 C   0  0  0  0  0  0  0  0  0  0  0  0
    3.8680   -2.1401    0.0000 C   0  0  0  0  0  0  0  0  0  0  0  0
    3.1611   -2.5525    0.0000 C   0  0  0  0  0  0  0  0  0  0  0  0
    3.1611   -3.4033    0.0000 C   0  0  0  0  0  0  0  0  0  0  0  0
    7.4217   -2.5655    0.0000 C   0  0  0  0  0  0  0  0  0  0  0  0
    6.0081   -2.5721    0.0000 C   0  0  0  0  0  0  0  0  0  0  0  0
    6.0081   -3.4033    0.0000 C   0  0  0  0  0  0  0  0  0  0  0  0
    8.8354   -2.5721    0.0000 C   0  0  0  0  0  0  0  0  0  0  0  0
    7.4217   -3.3967    0.0000 C   0  0  0  0  0  0  0  0  0  0  0  0
    6.7018   -3.8090    0.0000 C   0  0  0  0  0  0  0  0  0  0  0  0
    4.5747   -3.4033    0.0000 C   0  0  0  0  0  0  0  0  0  0  0  0
    7.4266   -5.0999    0.0000 C   0  0  0  0  0  0  0  0  0  0  0  0
    1.0210   -5.5074    0.0000 C   0  0  0  0  0  0  0  0  0  0  0  0
    0.2062   -4.6926    0.0000 O   0  0  0  0  0  0  0  0  0  0  0  0
    1.8554   -4.6926    0.0000 O   0  0  0  0  0  0  0  0  0  0  0  0
    5.2588   -3.8159    0.0000 N   0  0  0  0  0  0  0  0  0  0  0  0
    2.4415   -3.8309    0.0000 N   0  0  0  0  0  0  0  0  0  0  0  0
    9.7582   -1.3253    0.0000 N   0  0  0  0  0  0  0  0  0  0  0  0
    4.5846   -2.5917    0.0000 N   0  0  0  0  0  0  0  0  0  0  0  0
    3.8778   -3.8680    0.0000 N   0  0  0  0  0  0  0  0  0  0  0  0
    1.0210   -4.6926    0.0000 S   0  0  0  0  0  0  0  0  0  0  0  0
    6.7050   -4.6926    0.0000 O   0  0  0  0  0  0  0  0  0  0  0  0
  1 16  1  0  0  0  0
  2 16  1  0  0  0  0
  3 17  1  0  0  0  0
  5 17  1  0  0  0  0
  4 17  1  0  0  0  0
 16 18  1  0  0  0  0
 18 19  1  0  0  0  0
  6 19  1  0  0  0  0
 17 20  1  0  0  0  0
  7 21  1  0  0  0  0
  8 21  1  0  0  0  0
 22 23  2  0  0  0  0
 23 24  1  0  0  0  0
 24 25  2  0  0  0  0
 25 26  1  0  0  0  0
 26 27  2  0  0  0  0
 22 27  1  0  0  0  0
 28 29  1  0  0  0  0
  9 29  1  0  0  0  0
 29 30  2  0  0  0  0
 20 31  1  0  0  0  0
 19 31  1  0  0  0  0
 20 32  2  0  0  0  0
 32 33  1  0  0  0  0
 21 34  1  0  0  0  0
 19 34  1  0  0  0  0
 31 35  2  0  0  0  0
 35 36  1  0  0  0  0
 33 36  2  0  0  0  0
 10 38  1  0  0  0  0
 11 38  1  0  0  0  0
 12 38  1  0  0  0  0
 13 39  1  0  0  0  0
 14 39  1  0  0  0  0
 15 39  1  0  0  0  0
 33 42  1  0  0  0  0
 37 42  1  0  0  0  0
 22 43  1  0  0  0  0
 30 43  1  0  0  0  0
 16 44  1  0  0  0  0
 21 44  1  0  0  0  0
 28 45  2  0  0  0  0
 37 45  1  0  0  0  0
 30 46  1  0  0  0  0
 37 46  2  0  0  0  0
 27 47  1  0  0  0  0
 39 47  1  0  0  0  0
 40 47  2  0  0  0  0
 41 47  2  0  0  0  0
 36 48  1  0  0  0  0
 38 48  1  0  0  0  0
M  END
> <ID>
SCHEMBL21169877

> <InChIKey>
ULNYGCUIWLVDQS-UHFFFAOYSA-N

> <MW>
718.13

> <Series_Name>
Series_7

$$$$
SCHEMBL21170017
  Mrv1719007241903482D 0   0.00000     0.00000     0

 42 45  0  0  0  0              1 V2000 
    9.2529   -0.2028    0.0000 O   0  0  0  0  0  0  0  0  0  0  0  0
    8.1229   -0.7340    0.0000 O   0  0  0  0  0  0  0  0  0  0  0  0
    6.7803   -1.3522    0.0000 C   0  0  0  0  0  0  0  0  0  0  0  0
   10.4795   -2.2022    0.0000 O   0  0  0  0  0  0  0  0  0  0  0  0
    9.6489   -3.0328    0.0000 O   0  0  0  0  0  0  0  0  0  0  0  0
    2.3084   -2.2118    0.0000 Cl  0  0  0  0  0  0  0  0  0  0  0  0
    8.1904   -4.6554    0.0000 C   0  0  0  0  0  0  0  0  0  0  0  0
    7.4950   -5.8724    0.0000 C   0  0  0  0  0  0  0  0  0  0  0  0
    1.6613   -5.9690    0.0000 C   0  0  0  0  0  0  0  0  0  0  0  0
    0.2318   -5.6599    0.0000 C   0  0  0  0  0  0  0  0  0  0  0  0
    8.9245   -0.9127    0.0000 C   0  0  0  0  0  0  0  0  0  0  0  0
    8.2291   -1.3329    0.0000 C   0  0  0  0  0  0  0  0  0  0  0  0
    8.2033   -2.1507    0.0000 C   0  0  0  0  0  0  0  0  0  0  0  0
    6.7803   -2.1507    0.0000 C   0  0  0  0  0  0  0  0  0  0  0  0
    9.6489   -2.1683    0.0000 C   0  0  0  0  0  0  0  0  0  0  0  0
    1.7578   -3.4062    0.0000 C   0  0  0  0  0  0  0  0  0  0  0  0
    1.7578   -2.5885    0.0000 C   0  0  0  0  0  0  0  0  0  0  0  0
    0.9272   -2.2022    0.0000 C   0  0  0  0  0  0  0  0  0  0  0  0
    0.3091   -2.5885    0.0000 C   0  0  0  0  0  0  0  0  0  0  0  0
    0.3091   -3.3998    0.0000 C   0  0  0  0  0  0  0  0  0  0  0  0
    1.0302   -3.8054    0.0000 C   0  0  0  0  0  0  0  0  0  0  0  0
    3.8827   -2.1635    0.0000 C   0  0  0  0  0  0  0  0  0  0  0  0
    3.1873   -2.5820    0.0000 C   0  0  0  0  0  0  0  0  0  0  0  0
    6.0656   -2.5692    0.0000 C   0  0  0  0  0  0  0  0  0  0  0  0
    6.0656   -3.4062    0.0000 C   0  0  0  0  0  0  0  0  0  0  0  0
    7.4950   -2.5820    0.0000 C   0  0  0  0  0  0  0  0  0  0  0  0
    8.9245   -2.5692    0.0000 C   0  0  0  0  0  0  0  0  0  0  0  0
    3.1873   -3.4062    0.0000 C   0  0  0  0  0  0  0  0  0  0  0  0
    7.4950   -3.3998    0.0000 C   0  0  0  0  0  0  0  0  0  0  0  0
    6.7803   -3.8183    0.0000 C   0  0  0  0  0  0  0  0  0  0  0  0
    4.6168   -3.4062    0.0000 C   0  0  0  0  0  0  0  0  0  0  0  0
    7.4950   -5.0547    0.0000 C   0  0  0  0  0  0  0  0  0  0  0  0
    1.0431   -5.4539    0.0000 C   0  0  0  0  0  0  0  0  0  0  0  0
    0.2028   -4.6650    0.0000 O   0  0  0  0  0  0  0  0  0  0  0  0
    1.8641   -4.6650    0.0000 O   0  0  0  0  0  0  0  0  0  0  0  0
    6.7707   -4.6650    0.0000 O   0  0  0  0  0  0  0  0  0  0  0  0
    1.0238   -4.6650    0.0000 S   0  0  0  0  0  0  0  0  0  0  0  0
    5.3411   -3.8052    0.0000 N   0  0  0  0  0  0  0  0  0  0  0  0
    2.4567   -3.8086    0.0000 N   0  0  0  0  0  0  0  0  0  0  0  0
    4.6361   -2.6174    0.0000 N   0  0  0  0  0  0  0  0  0  0  0  0
    9.8614   -1.3715    0.0000 N   0  0  0  0  0  0  0  0  0  0  0  0
    3.9021   -3.8634    0.0000 N   0  0  0  0  0  0  0  0  0  0  0  0
  1 11  1  0  0  0  0
  2 11  1  0  0  0  0
 11 12  1  0  0  0  0
 12 13  1  0  0  0  0
  3 14  1  0  0  0  0
  4 15  1  0  0  0  0
  5 15  1  0  0  0  0
 16 17  2  0  0  0  0
 17 18  1  0  0  0  0
 18 19  2  0  0  0  0
 19 20  1  0  0  0  0
 20 21  2  0  0  0  0
 16 21  1  0  0  0  0
 22 23  1  0  0  0  0
  6 23  1  0  0  0  0
 14 24  2  0  0  0  0
 24 25  1  0  0  0  0
 14 26  1  0  0  0  0
 13 26  1  0  0  0  0
 15 27  1  0  0  0  0
 13 27  1  0  0  0  0
 23 28  2  0  0  0  0
 26 29  2  0  0  0  0
 29 30  1  0  0  0  0
 25 30  2  0  0  0  0
  7 32  1  0  0  0  0
  8 32  1  0  0  0  0
  9 33  1  0  0  0  0
 10 33  1  0  0  0  0
 30 36  1  0  0  0  0
 32 36  1  0  0  0  0
 21 37  1  0  0  0  0
 33 37  1  0  0  0  0
 34 37  2  0  0  0  0
 35 37  2  0  0  0  0
 25 38  1  0  0  0  0
 31 38  1  0  0  0  0
 16 39  1  0  0  0  0
 28 39  1  0  0  0  0
 22 40  2  0  0  0  0
 31 40  1  0  0  0  0
 11 41  1  0  0  0  0
 15 41  1  0  0  0  0
 28 42  1  0  0  0  0
 31 42  2  0  0  0  0
M  END
> <ID>
SCHEMBL21170017

> <InChIKey>
ZKIANACLEBDLBK-UHFFFAOYSA-N

> <MW>
622.13

> <Series_Name>
Series_7

$$$$
SCHEMBL21170018
  Mrv1719007241903492D 0   0.00000     0.00000     0

 45 48  0  0  0  0              1 V2000 
    7.4936   -0.4488    0.0000 C   0  0  0  0  0  0  0  0  0  0  0  0
    3.0150   -1.3270    0.0000 Cl  0  0  0  0  0  0  0  0  0  0  0  0
    8.8791   -3.7663    0.0000 C   0  0  0  0  0  0  0  0  0  0  0  0
    8.1961   -4.9762    0.0000 C   0  0  0  0  0  0  0  0  0  0  0  0
    0.3903   -4.2542    0.0000 O   0  0  0  0  0  0  0  0  0  0  0  0
    2.5174   -4.3127    0.0000 O   0  0  0  0  0  0  0  0  0  0  0  0
    2.3027   -5.9422    0.0000 O   0  0  0  0  0  0  0  0  0  0  0  0
    1.7661   -5.4543    0.0000 O   0  0  0  0  0  0  0  0  0  0  0  0
    0.1756   -5.0543    0.0000 O   0  0  0  0  0  0  0  0  0  0  0  0
    0.7610   -5.6495    0.0000 O   0  0  0  0  0  0  0  0  0  0  0  0
    3.1613   -4.8103    0.0000 O   0  0  0  0  0  0  0  0  0  0  0  0
    9.6011   -0.0390    0.0000 C   0  0  0  0  0  0  0  0  0  0  0  0
    8.9377   -0.4098    0.0000 C   0  0  0  0  0  0  0  0  0  0  0  0
    8.8987   -1.2750    0.0000 C   0  0  0  0  0  0  0  0  0  0  0  0
    7.4936   -1.2750    0.0000 C   0  0  0  0  0  0  0  0  0  0  0  0
   10.3427   -1.2685    0.0000 C   0  0  0  0  0  0  0  0  0  0  0  0
    9.6402   -1.6783    0.0000 C   0  0  0  0  0  0  0  0  0  0  0  0
    2.4783   -2.5239    0.0000 C   0  0  0  0  0  0  0  0  0  0  0  0
    2.4783   -1.6783    0.0000 C   0  0  0  0  0  0  0  0  0  0  0  0
    1.7954   -1.2880    0.0000 C   0  0  0  0  0  0  0  0  0  0  0  0
    1.0538   -1.6783    0.0000 C   0  0  0  0  0  0  0  0  0  0  0  0
    1.0538   -2.5174    0.0000 C   0  0  0  0  0  0  0  0  0  0  0  0
    1.7628   -2.9207    0.0000 C   0  0  0  0  0  0  0  0  0  0  0  0
    4.5859   -1.2880    0.0000 C   0  0  0  0  0  0  0  0  0  0  0  0
    3.9029   -1.6717    0.0000 C   0  0  0  0  0  0  0  0  0  0  0  0
    8.1831   -1.6717    0.0000 C   0  0  0  0  0  0  0  0  0  0  0  0
    6.7716   -1.6588    0.0000 C   0  0  0  0  0  0  0  0  0  0  0  0
    6.7520   -2.5239    0.0000 C   0  0  0  0  0  0  0  0  0  0  0  0
    8.1961   -2.4979    0.0000 C   0  0  0  0  0  0  0  0  0  0  0  0
    7.4806   -2.9207    0.0000 C   0  0  0  0  0  0  0  0  0  0  0  0
    3.9029   -2.5239    0.0000 C   0  0  0  0  0  0  0  0  0  0  0  0
    5.3274   -2.5239    0.0000 C   0  0  0  0  0  0  0  0  0  0  0  0
    8.1831   -4.1761    0.0000 C   0  0  0  0  0  0  0  0  0  0  0  0
    1.7856   -4.6103    0.0000 C   0  0  0  0  0  0  0  0  0  0  0  0
    2.4149   -5.0640    0.0000 C   0  0  0  0  0  0  0  0  0  0  0  0
    0.9269   -3.7956    0.0000 O   0  0  0  0  0  0  0  0  0  0  0  0
    2.5857   -3.7956    0.0000 O   0  0  0  0  0  0  0  0  0  0  0  0
    0.9107   -4.8049    0.0000 C   0  0  0  0  0  0  0  0  0  0  0  0
   10.5379   -0.4781    0.0000 N   0  0  0  0  0  0  0  0  0  0  0  0
    5.3274   -1.7075    0.0000 N   0  0  0  0  0  0  0  0  0  0  0  0
    3.1741   -2.9104    0.0000 N   0  0  0  0  0  0  0  0  0  0  0  0
    6.0563   -2.9104    0.0000 N   0  0  0  0  0  0  0  0  0  0  0  0
    1.7466   -3.7956    0.0000 S   0  0  0  0  0  0  0  0  0  0  0  0
    7.4741   -3.7956    0.0000 O   0  0  0  0  0  0  0  0  0  0  0  0
    4.6152   -2.9662    0.0000 N   0  0  0  0  0  0  0  0  0  0  0  0
 12 13  1  0  0  0  0
 13 14  1  0  0  0  0
  1 15  1  0  0  0  0
 16 17  1  0  0  0  0
 14 17  1  0  0  0  0
 18 19  2  0  0  0  0
 19 20  1  0  0  0  0
 20 21  2  0  0  0  0
 21 22  1  0  0  0  0
 22 23  2  0  0  0  0
 18 23  1  0  0  0  0
 24 25  1  0  0  0  0
  2 25  1  0  0  0  0
 15 26  1  0  0  0  0
 14 26  1  0  0  0  0
 15 27  2  0  0  0  0
 27 28  1  0  0  0  0
 26 29  2  0  0  0  0
 29 30  1  0  0  0  0
 28 30  2  0  0  0  0
 25 31  2  0  0  0  0
  3 33  1  0  0  0  0
  4 33  1  0  0  0  0
  8 34  1  0  0  0  0
  6 35  1  0  0  0  0
 34 35  1  0  0  0  0
  7 35  1  0  0  0  0
 11 35  1  0  0  0  0
  5 38  1  0  0  0  0
  9 38  1  0  0  0  0
 34 38  1  0  0  0  0
 10 38  1  0  0  0  0
 12 39  1  0  0  0  0
 16 39  1  0  0  0  0
 24 40  2  0  0  0  0
 32 40  1  0  0  0  0
 18 41  1  0  0  0  0
 31 41  1  0  0  0  0
 28 42  1  0  0  0  0
 32 42  1  0  0  0  0
 23 43  1  0  0  0  0
 34 43  1  0  0  0  0
 36 43  2  0  0  0  0
 37 43  2  0  0  0  0
 30 44  1  0  0  0  0
 33 44  1  0  0  0  0
 31 45  1  0  0  0  0
 32 45  2  0  0  0  0
M  END
> <ID>
SCHEMBL21170018

> <InChIKey>
JFDJJILFUOROST-UHFFFAOYSA-N

> <MW>
670.13

> <Series_Name>
Series_7

$$$$
SCHEMBL21170019
  Mrv1719007241903492D 0   0.00000     0.00000     0

 43 46  0  0  0  0              1 V2000 
    9.7990   -0.2045    0.0000 O   0  0  0  0  0  0  0  0  0  0  0  0
    8.6886   -0.5163    0.0000 O   0  0  0  0  0  0  0  0  0  0  0  0
    7.2470   -1.3247    0.0000 C   0  0  0  0  0  0  0  0  0  0  0  0
   10.9095   -2.1917    0.0000 O   0  0  0  0  0  0  0  0  0  0  0  0
   10.0913   -3.0293    0.0000 O   0  0  0  0  0  0  0  0  0  0  0  0
    2.8150   -2.2014    0.0000 Cl  0  0  0  0  0  0  0  0  0  0  0  0
    0.1461   -2.1917    0.0000 F   0  0  0  0  0  0  0  0  0  0  0  0
    8.6496   -4.6755    0.0000 C   0  0  0  0  0  0  0  0  0  0  0  0
    7.9484   -5.9223    0.0000 C   0  0  0  0  0  0  0  0  0  0  0  0
    2.2014   -6.0002    0.0000 C   0  0  0  0  0  0  0  0  0  0  0  0
    0.7598   -5.7080    0.0000 C   0  0  0  0  0  0  0  0  0  0  0  0
    8.6886   -1.3052    0.0000 C   0  0  0  0  0  0  0  0  0  0  0  0
    8.6626   -2.1494    0.0000 C   0  0  0  0  0  0  0  0  0  0  0  0
    7.2470   -2.1494    0.0000 C   0  0  0  0  0  0  0  0  0  0  0  0
   10.0815   -2.1673    0.0000 C   0  0  0  0  0  0  0  0  0  0  0  0
    2.2598   -3.3963    0.0000 C   0  0  0  0  0  0  0  0  0  0  0  0
    2.1235   -2.4741    0.0000 C   0  0  0  0  0  0  0  0  0  0  0  0
    1.5390   -2.1624    0.0000 C   0  0  0  0  0  0  0  0  0  0  0  0
    0.8572   -3.4092    0.0000 C   0  0  0  0  0  0  0  0  0  0  0  0
    1.5585   -3.8313    0.0000 C   0  0  0  0  0  0  0  0  0  0  0  0
    4.3832   -2.1624    0.0000 C   0  0  0  0  0  0  0  0  0  0  0  0
    3.7014   -3.3963    0.0000 C   0  0  0  0  0  0  0  0  0  0  0  0
    6.5457   -2.5715    0.0000 C   0  0  0  0  0  0  0  0  0  0  0  0
    6.5457   -3.3963    0.0000 C   0  0  0  0  0  0  0  0  0  0  0  0
    7.9484   -2.5845    0.0000 C   0  0  0  0  0  0  0  0  0  0  0  0
    9.3705   -2.5715    0.0000 C   0  0  0  0  0  0  0  0  0  0  0  0
    7.9484   -3.3897    0.0000 C   0  0  0  0  0  0  0  0  0  0  0  0
    7.2470   -3.8313    0.0000 C   0  0  0  0  0  0  0  0  0  0  0  0
    5.1040   -3.3963    0.0000 C   0  0  0  0  0  0  0  0  0  0  0  0
    7.9484   -5.0781    0.0000 C   0  0  0  0  0  0  0  0  0  0  0  0
    1.5585   -5.5002    0.0000 C   0  0  0  0  0  0  0  0  0  0  0  0
    2.3670   -4.7047    0.0000 O   0  0  0  0  0  0  0  0  0  0  0  0
    0.7306   -4.7047    0.0000 O   0  0  0  0  0  0  0  0  0  0  0  0
    3.7111   -2.5423    0.0000 C   0  0  0  0  0  0  0  0  0  0  0  0
    0.8669   -2.5423    0.0000 C   0  0  0  0  0  0  0  0  0  0  0  0
    9.3705   -0.9059    0.0000 C   0  0  0  0  0  0  0  0  0  0  0  0
   10.3056   -1.3539    0.0000 N   0  0  0  0  0  0  0  0  0  0  0  0
    7.2373   -4.7047    0.0000 O   0  0  0  0  0  0  0  0  0  0  0  0
    1.5390   -4.7047    0.0000 S   0  0  0  0  0  0  0  0  0  0  0  0
    5.8249   -3.8440    0.0000 N   0  0  0  0  0  0  0  0  0  0  0  0
    4.3930   -3.8670    0.0000 N   0  0  0  0  0  0  0  0  0  0  0  0
    2.9806   -3.8440    0.0000 N   0  0  0  0  0  0  0  0  0  0  0  0
    5.1138   -2.6105    0.0000 N   0  0  0  0  0  0  0  0  0  0  0  0
 12 13  1  0  0  0  0
  3 14  1  0  0  0  0
  4 15  1  0  0  0  0
  5 15  1  0  0  0  0
 16 17  2  0  0  0  0
 17 18  1  0  0  0  0
 19 20  2  0  0  0  0
 16 20  1  0  0  0  0
 14 23  2  0  0  0  0
 23 24  1  0  0  0  0
 14 25  1  0  0  0  0
 13 25  1  0  0  0  0
 15 26  1  0  0  0  0
 13 26  1  0  0  0  0
 25 27  2  0  0  0  0
 27 28  1  0  0  0  0
 24 28  2  0  0  0  0
  8 30  1  0  0  0  0
  9 30  1  0  0  0  0
 10 31  1  0  0  0  0
 11 31  1  0  0  0  0
  6 34  1  0  0  0  0
 21 34  1  0  0  0  0
 22 34  2  0  0  0  0
  7 35  1  0  0  0  0
 18 35  2  0  0  0  0
 19 35  1  0  0  0  0
  1 36  1  0  0  0  0
  2 36  1  0  0  0  0
 12 36  1  0  0  0  0
 15 37  1  0  0  0  0
 36 37  1  0  0  0  0
 28 38  1  0  0  0  0
 30 38  1  0  0  0  0
 20 39  1  0  0  0  0
 31 39  1  0  0  0  0
 32 39  2  0  0  0  0
 33 39  2  0  0  0  0
 24 40  1  0  0  0  0
 29 40  1  0  0  0  0
 22 41  1  0  0  0  0
 29 41  2  0  0  0  0
 16 42  1  0  0  0  0
 22 42  1  0  0  0  0
 21 43  2  0  0  0  0
 29 43  1  0  0  0  0
M  END
> <ID>
SCHEMBL21170019

> <InChIKey>
GDEZBTKJFZSQCH-UHFFFAOYSA-N

> <MW>
640.12

> <Series_Name>
Series_7

$$$$
SCHEMBL21170020
  Mrv1719007241903492D 0   0.00000     0.00000     0

 47 50  0  0  0  0              1 V2000 
    9.2893   -0.2038    0.0000 O   0  0  0  0  0  0  0  0  0  0  0  0
    8.1731   -0.5048    0.0000 O   0  0  0  0  0  0  0  0  0  0  0  0
    6.5811   -0.5242    0.0000 O   0  0  0  0  0  0  0  0  0  0  0  0
    7.3771   -0.8251    0.0000 O   0  0  0  0  0  0  0  0  0  0  0  0
    5.9307   -1.1259    0.0000 O   0  0  0  0  0  0  0  0  0  0  0  0
    7.4451   -1.7569    0.0000 O   0  0  0  0  0  0  0  0  0  0  0  0
   10.4056   -2.1742    0.0000 O   0  0  0  0  0  0  0  0  0  0  0  0
    9.5902   -3.0187    0.0000 O   0  0  0  0  0  0  0  0  0  0  0  0
    2.2810   -2.1839    0.0000 Cl  0  0  0  0  0  0  0  0  0  0  0  0
    8.1537   -4.6398    0.0000 C   0  0  0  0  0  0  0  0  0  0  0  0
    8.1537   -5.5134    0.0000 O   0  0  0  0  0  0  0  0  0  0  0  0
    7.4354   -5.9016    0.0000 C   0  0  0  0  0  0  0  0  0  0  0  0
    1.6502   -5.9793    0.0000 C   0  0  0  0  0  0  0  0  0  0  0  0
    0.2329   -5.6881    0.0000 C   0  0  0  0  0  0  0  0  0  0  0  0
    8.8622   -0.8688    0.0000 C   0  0  0  0  0  0  0  0  0  0  0  0
    6.7219   -1.2909    0.0000 C   0  0  0  0  0  0  0  0  0  0  0  0
    8.1731   -1.3006    0.0000 C   0  0  0  0  0  0  0  0  0  0  0  0
    8.1342   -2.1209    0.0000 C   0  0  0  0  0  0  0  0  0  0  0  0
    6.7364   -2.1419    0.0000 C   0  0  0  0  0  0  0  0  0  0  0  0
    9.5805   -2.1597    0.0000 C   0  0  0  0  0  0  0  0  0  0  0  0
    8.8525   -2.5432    0.0000 C   0  0  0  0  0  0  0  0  0  0  0  0
    7.4354   -2.5561    0.0000 C   0  0  0  0  0  0  0  0  0  0  0  0
    1.7472   -3.4039    0.0000 C   0  0  0  0  0  0  0  0  0  0  0  0
    1.7472   -2.5626    0.0000 C   0  0  0  0  0  0  0  0  0  0  0  0
    0.9124   -2.1937    0.0000 C   0  0  0  0  0  0  0  0  0  0  0  0
    0.3105   -2.5626    0.0000 C   0  0  0  0  0  0  0  0  0  0  0  0
    0.3105   -3.3974    0.0000 C   0  0  0  0  0  0  0  0  0  0  0  0
    1.0159   -3.7986    0.0000 C   0  0  0  0  0  0  0  0  0  0  0  0
    3.8632   -2.1548    0.0000 C   0  0  0  0  0  0  0  0  0  0  0  0
    3.1643   -2.5561    0.0000 C   0  0  0  0  0  0  0  0  0  0  0  0
    6.0181   -2.5626    0.0000 C   0  0  0  0  0  0  0  0  0  0  0  0
    6.0181   -3.3845    0.0000 C   0  0  0  0  0  0  0  0  0  0  0  0
    3.1643   -3.4039    0.0000 C   0  0  0  0  0  0  0  0  0  0  0  0
    7.4354   -3.3974    0.0000 C   0  0  0  0  0  0  0  0  0  0  0  0
    6.7364   -3.7986    0.0000 C   0  0  0  0  0  0  0  0  0  0  0  0
    4.6010   -3.4039    0.0000 C   0  0  0  0  0  0  0  0  0  0  0  0
    7.4402   -5.0766    0.0000 C   0  0  0  0  0  0  0  0  0  0  0  0
    1.0289   -5.4811    0.0000 C   0  0  0  0  0  0  0  0  0  0  0  0
    1.8540   -4.6786    0.0000 O   0  0  0  0  0  0  0  0  0  0  0  0
    0.2038   -4.6786    0.0000 O   0  0  0  0  0  0  0  0  0  0  0  0
    4.6010   -2.6014    0.0000 N   0  0  0  0  0  0  0  0  0  0  0  0
    9.8037   -1.3395    0.0000 N   0  0  0  0  0  0  0  0  0  0  0  0
    2.4559   -3.8438    0.0000 N   0  0  0  0  0  0  0  0  0  0  0  0
    3.8730   -3.8438    0.0000 N   0  0  0  0  0  0  0  0  0  0  0  0
    5.3096   -3.8438    0.0000 N   0  0  0  0  0  0  0  0  0  0  0  0
    1.0095   -4.6786    0.0000 S   0  0  0  0  0  0  0  0  0  0  0  0
    6.7267   -4.6786    0.0000 O   0  0  0  0  0  0  0  0  0  0  0  0
  1 15  1  0  0  0  0
  2 15  1  0  0  0  0
  3 16  1  0  0  0  0
  4 16  1  0  0  0  0
  5 16  1  0  0  0  0
 15 17  1  0  0  0  0
 17 18  1  0  0  0  0
  6 18  1  0  0  0  0
 16 19  1  0  0  0  0
  7 20  1  0  0  0  0
  8 20  1  0  0  0  0
 20 21  1  0  0  0  0
 18 21  1  0  0  0  0
 18 22  1  0  0  0  0
 19 22  1  0  0  0  0
 23 24  2  0  0  0  0
 24 25  1  0  0  0  0
 25 26  2  0  0  0  0
 26 27  1  0  0  0  0
 27 28  2  0  0  0  0
 23 28  1  0  0  0  0
 29 30  1  0  0  0  0
  9 30  1  0  0  0  0
 19 31  2  0  0  0  0
 31 32  1  0  0  0  0
 30 33  2  0  0  0  0
 22 34  2  0  0  0  0
 34 35  1  0  0  0  0
 32 35  2  0  0  0  0
 10 37  1  0  0  0  0
 12 37  1  0  0  0  0
 11 37  1  0  0  0  0
 13 38  1  0  0  0  0
 14 38  1  0  0  0  0
 29 41  2  0  0  0  0
 36 41  1  0  0  0  0
 15 42  1  0  0  0  0
 20 42  1  0  0  0  0
 23 43  1  0  0  0  0
 33 43  1  0  0  0  0
 33 44  1  0  0  0  0
 36 44  2  0  0  0  0
 32 45  1  0  0  0  0
 36 45  1  0  0  0  0
 28 46  1  0  0  0  0
 38 46  1  0  0  0  0
 39 46  2  0  0  0  0
 40 46  2  0  0  0  0
 35 47  1  0  0  0  0
 37 47  1  0  0  0  0
M  END
> <ID>
SCHEMBL21170020

> <InChIKey>
ULTRJQHAQTWVSU-UHFFFAOYSA-N

> <MW>
702.13

> <Series_Name>
Series_7

$$$$
